Program Version,EnergyPlus, Version 8.9.0-40101eaafd, YMD=2018.11.22 10:00
! This file shows details about the branches, nodes, and other
! elements of the flow connections.
! This file is intended for use in "debugging" potential problems
! that may also be detected by the program, but may be more easily
! identified by "eye".
! This file is also intended to support software which draws a
! schematic diagram of the HVAC system.
! ===============================================================
! #Nodes,<Number of Unique Nodes>
 #Nodes,202
! <Node>,<NodeNumber>,<Node Name>,<Node Fluid Type>,<# Times Node Referenced After Definition>
 Node,1,NODE 65,Air,4
 Node,2,NODE 85,Air,4
 Node,3,NODE 171,Air,4
 Node,4,NODE 122,Air,2
 Node,5,NODE 121,Air,2
 Node,6,NODE 62,Air,4
 Node,7,NODE 59,Air,4
 Node,8,NODE 50,Air,4
 Node,9,NODE 68,Air,4
 Node,10,NODE 91,Air,4
 Node,11,NODE 75,Air,4
 Node,12,NODE 88,Air,4
 Node,13,NODE 94,Air,4
 Node,14,NODE 111,Air,4
 Node,15,NODE 114,Air,4
 Node,16,NODE 101,Air,4
 Node,17,NODE 117,Air,4
 Node,18,NODE 47,Air,10
 Node,19,NODE 48,Air,3
 Node,20,NODE 72,Air,10
 Node,21,NODE 73,Air,3
 Node,22,NODE 98,Air,10
 Node,23,NODE 99,Air,3
 Node,24,NODE 168,Air,11
 Node,25,NODE 169,Air,3
 Node,26,NODE 46,Air,3
 Node,27,NODE 56,Air,5
 Node,28,NODE 55,Air,5
 Node,29,NODE 54,Air,8
 Node,30,NODE 71,Air,3
 Node,31,NODE 82,Air,5
 Node,32,NODE 81,Air,5
 Node,33,NODE 80,Air,8
 Node,34,NODE 97,Air,3
 Node,35,NODE 108,Air,5
 Node,36,NODE 107,Air,5
 Node,37,NODE 106,Air,8
 Node,38,NODE 167,Air,3
 Node,39,NODE 174,Air,5
 Node,40,NODE 175,Air,6
 Node,41,NODE 176,Air,7
 Node,42,NODE 19,Water,2
 Node,43,NODE 25,Water,1
 Node,44,NODE 21,Water,1
 Node,45,NODE 26,Water,1
 Node,46,NODE 27,Water,1
 Node,47,NODE 28,Water,1
 Node,48,NODE 29,Water,1
 Node,49,NODE 30,Water,1
 Node,50,NODE 31,Water,1
 Node,51,NODE 20,Water,4
 Node,52,NODE 22,Water,2
 Node,53,CHILLED WATER LOOP DEMAND INLET PIPE NODE,Water,1
 Node,54,NODE 24,Water,2
 Node,55,NODE 51,Water,1
 Node,56,NODE 76,Water,2
 Node,57,NODE 77,Water,1
 Node,58,NODE 102,Water,2
 Node,59,NODE 103,Water,1
 Node,60,NODE 178,Water,2
 Node,61,NODE 179,Water,1
 Node,62,CHILLED WATER LOOP DEMAND BYPASS PIPE INLET NODE,Water,1
 Node,63,CHILLED WATER LOOP DEMAND BYPASS PIPE OUTLET NODE,Water,1
 Node,64,CHILLED WATER LOOP DEMAND OUTLET PIPE NODE,Water,1
 Node,65,NODE 23,Water,2
 Node,66,NODE 32,Water,2
 Node,67,NODE 38,Water,1
 Node,68,NODE 34,Water,1
 Node,69,NODE 39,Water,1
 Node,70,NODE 40,Water,1
 Node,71,NODE 41,Water,1
 Node,72,NODE 42,Water,1
 Node,73,NODE 33,Water,4
 Node,74,NODE 35,Water,2
 Node,75,CONDENSER WATER LOOP DEMAND INLET PIPE NODE,Water,1
 Node,76,NODE 37,Water,1
 Node,77,NODE 43,Water,1
 Node,78,NODE 44,Water,1
 Node,79,NODE 45,Water,1
 Node,80,CONDENSER WATER LOOP DEMAND BYPASS PIPE INLET NODE,Water,1
 Node,81,CONDENSER WATER LOOP DEMAND BYPASS PIPE OUTLET NODE,Water,1
 Node,82,CONDENSER WATER LOOP DEMAND OUTLET PIPE NODE,Water,1
 Node,83,NODE 36,Water,2
 Node,84,NODE 123,Water,2
 Node,85,NODE 129,Water,1
 Node,86,NODE 125,Water,1
 Node,87,NODE 130,Water,1
 Node,88,NODE 131,Water,1
 Node,89,NODE 132,Water,1
 Node,90,NODE 134,Water,1
 Node,91,NODE 124,Water,4
 Node,92,NODE 126,Water,2
 Node,93,NODE 135,Water,1
 Node,94,NODE 128,Water,1
 Node,95,NODE 133,Water,1
 Node,96,NODE 137,Water,1
 Node,97,NODE 138,Water,1
 Node,98,NODE 139,Water,1
 Node,99,NODE 140,Water,1
 Node,100,NODE 141,Water,1
 Node,101,NODE 142,Water,1
 Node,102,NODE 143,Water,1
 Node,103,NODE 144,Water,1
 Node,104,NODE 145,Water,1
 Node,105,NODE 146,Water,1
 Node,106,NODE 147,Water,1
 Node,107,NODE 148,Water,1
 Node,108,NODE 149,Water,1
 Node,109,NODE 150,Water,1
 Node,110,NODE 151,Water,1
 Node,111,NODE 152,Water,1
 Node,112,NODE 153,Water,1
 Node,113,NODE 154,Water,1
 Node,114,NODE 155,Water,1
 Node,115,NODE 156,Water,1
 Node,116,NODE 157,Water,1
 Node,117,NODE 158,Water,1
 Node,118,NODE 159,Water,1
 Node,119,NODE 160,Water,1
 Node,120,NODE 161,Water,1
 Node,121,NODE 162,Water,1
 Node,122,NODE 163,Water,1
 Node,123,NODE 164,Water,1
 Node,124,NODE 165,Water,1
 Node,125,NODE 166,Water,1
 Node,126,MAIN SERVICE WATER LOOP DEMAND BYPASS PIPE INLET NODE,Water,1
 Node,127,MAIN SERVICE WATER LOOP DEMAND BYPASS PIPE OUTLET NODE,Water,1
 Node,128,NODE 136,Water,1
 Node,129,NODE 127,Water,2
 Node,130,NODE 13,Air,0
 Node,131,NODE 66,Air,1
 Node,132,NODE 18,Air,0
 Node,133,NODE 86,Air,1
 Node,134,NODE 8,Air,1
 Node,135,NODE 120,Air,1
 Node,136,NODE 12,Air,0
 Node,137,NODE 63,Air,1
 Node,138,NODE 10,Air,0
 Node,139,NODE 60,Air,1
 Node,140,NODE 9,Air,0
 Node,141,NODE 57,Air,1
 Node,142,NODE 11,Air,0
 Node,143,NODE 69,Air,1
 Node,144,NODE 17,Air,0
 Node,145,NODE 92,Air,1
 Node,146,NODE 15,Air,0
 Node,147,NODE 83,Air,1
 Node,148,NODE 14,Air,0
 Node,149,NODE 89,Air,1
 Node,150,NODE 16,Air,0
 Node,151,NODE 95,Air,1
 Node,152,NODE 7,Air,0
 Node,153,NODE 112,Air,1
 Node,154,NODE 5,Air,0
 Node,155,NODE 115,Air,1
 Node,156,NODE 4,Air,0
 Node,157,NODE 109,Air,1
 Node,158,NODE 6,Air,0
 Node,159,NODE 118,Air,1
 Node,160,NODE 49,Air,2
 Node,161,NODE 74,Air,2
 Node,162,NODE 100,Air,2
 Node,163,NODE 170,Air,2
 Node,164,NODE 52,Air,2
 Node,165,NODE 78,Air,2
 Node,166,NODE 104,Air,2
 Node,167,NODE 172,Air,2
 Node,168,MODEL OUTDOOR AIR NODE,Air,0
 Node,169,NODE 58,Air,1
 Node,170,NODE 61,Air,1
 Node,171,NODE 64,Air,1
 Node,172,NODE 67,Air,1
 Node,173,NODE 70,Air,1
 Node,174,NODE 84,Air,1
 Node,175,NODE 87,Air,1
 Node,176,NODE 90,Air,1
 Node,177,NODE 93,Air,1
 Node,178,NODE 96,Air,1
 Node,179,NODE 110,Air,1
 Node,180,NODE 113,Air,1
 Node,181,NODE 116,Air,1
 Node,182,NODE 119,Air,1
 Node,183,NODE 177,Air,1
 Node,184,AIR TERMINAL SINGLE DUCT VAV REHEAT 4 DAMPER OUTLET,Air,1
 Node,185,AIR TERMINAL SINGLE DUCT VAV REHEAT 7 DAMPER OUTLET,Air,1
 Node,186,AIR TERMINAL SINGLE DUCT VAV REHEAT 16 DAMPER OUTLET,Air,1
 Node,187,AIR TERMINAL SINGLE DUCT VAV REHEAT 3 DAMPER OUTLET,Air,1
 Node,188,AIR TERMINAL SINGLE DUCT VAV REHEAT 2 DAMPER OUTLET,Air,1
 Node,189,AIR TERMINAL SINGLE DUCT VAV REHEAT 1 DAMPER OUTLET,Air,1
 Node,190,AIR TERMINAL SINGLE DUCT VAV REHEAT 5 DAMPER OUTLET,Air,1
 Node,191,AIR TERMINAL SINGLE DUCT VAV REHEAT 9 DAMPER OUTLET,Air,1
 Node,192,AIR TERMINAL SINGLE DUCT VAV REHEAT 6 DAMPER OUTLET,Air,1
 Node,193,AIR TERMINAL SINGLE DUCT VAV REHEAT 8 DAMPER OUTLET,Air,1
 Node,194,AIR TERMINAL SINGLE DUCT VAV REHEAT 10 DAMPER OUTLET,Air,1
 Node,195,AIR TERMINAL SINGLE DUCT VAV REHEAT 12 DAMPER OUTLET,Air,1
 Node,196,AIR TERMINAL SINGLE DUCT VAV REHEAT 13 DAMPER OUTLET,Air,1
 Node,197,AIR TERMINAL SINGLE DUCT VAV REHEAT 11 DAMPER OUTLET,Air,1
 Node,198,AIR TERMINAL SINGLE DUCT VAV REHEAT 14 DAMPER OUTLET,Air,1
 Node,199,NODE 53,Air,1
 Node,200,NODE 79,Air,1
 Node,201,NODE 105,Air,1
 Node,202,NODE 173,Air,1
! ===============================================================
! Suspicious nodes have 0 references.  It is normal for some nodes, however.
! Listing nodes with 0 references (culled from previous list):
! <Suspicious Node>,<NodeNumber>,<Node Name>,<Node Fluid Type>,<# Times Node Referenced After Definition>
 Suspicious Node,130,NODE 13,Air,0
 Suspicious Node,132,NODE 18,Air,0
 Suspicious Node,136,NODE 12,Air,0
 Suspicious Node,138,NODE 10,Air,0
 Suspicious Node,140,NODE 9,Air,0
 Suspicious Node,142,NODE 11,Air,0
 Suspicious Node,144,NODE 17,Air,0
 Suspicious Node,146,NODE 15,Air,0
 Suspicious Node,148,NODE 14,Air,0
 Suspicious Node,150,NODE 16,Air,0
 Suspicious Node,152,NODE 7,Air,0
 Suspicious Node,154,NODE 5,Air,0
 Suspicious Node,156,NODE 4,Air,0
 Suspicious Node,158,NODE 6,Air,0
 Suspicious Node,168,MODEL OUTDOOR AIR NODE,Air,0
! ===============================================================
! <#Branch Lists>,<Number of Branch Lists>
 #Branch Lists,10
! <Branch List>,<Branch List Count>,<Branch List Name>,<Loop Name>,<Loop Type>,<Number of Branches>
! <Branch>,<Branch Count>,<Branch Name>,<Loop Name>,<Loop Type>,<Branch Inlet Node Name>,<Branch Outlet Node Name>
 Branch List,1,VAV WITH REHEAT SUPPLY BRANCHES,VAV WITH REHEAT,Air,1
   Branch,1,VAV WITH REHEAT MAIN BRANCH,VAV WITH REHEAT,Air,NODE 46,NODE 47
 Branch List,2,VAV WITH REHEAT 1 SUPPLY BRANCHES,VAV WITH REHEAT 1,Air,1
   Branch,1,VAV WITH REHEAT 1 MAIN BRANCH,VAV WITH REHEAT 1,Air,NODE 71,NODE 72
 Branch List,3,VAV WITH REHEAT 2 SUPPLY BRANCHES,VAV WITH REHEAT 2,Air,1
   Branch,1,VAV WITH REHEAT 2 MAIN BRANCH,VAV WITH REHEAT 2,Air,NODE 97,NODE 98
 Branch List,4,VAV WITH REHEAT 3 SUPPLY BRANCHES,VAV WITH REHEAT 3,Air,1
   Branch,1,VAV WITH REHEAT 3 MAIN BRANCH,VAV WITH REHEAT 3,Air,NODE 167,NODE 168
 Branch List,5,CHILLED WATER LOOP SUPPLY BRANCHES,CHILLED WATER LOOP,Plant Supply,5
   Branch,1,CHILLED WATER LOOP SUPPLY INLET BRANCH,CHILLED WATER LOOP,Plant Supply,NODE 19,NODE 25
   Branch,2,CHILLED WATER LOOP SUPPLY BRANCH 1,CHILLED WATER LOOP,Plant Supply,NODE 21,NODE 26
   Branch,3,CHILLED WATER LOOP SUPPLY BRANCH 2,CHILLED WATER LOOP,Plant Supply,NODE 27,NODE 28
   Branch,4,CHILLED WATER LOOP SUPPLY BRANCH 3,CHILLED WATER LOOP,Plant Supply,NODE 29,NODE 30
   Branch,5,CHILLED WATER LOOP SUPPLY OUTLET BRANCH,CHILLED WATER LOOP,Plant Supply,NODE 31,NODE 20
 Branch List,6,CHILLED WATER LOOP DEMAND BRANCHES,CHILLED WATER LOOP,Plant Demand,7
   Branch,1,CHILLED WATER LOOP DEMAND INLET BRANCH,CHILLED WATER LOOP,Plant Demand,NODE 22,CHILLED WATER LOOP DEMAND INLET PIPE NODE
   Branch,2,CHILLED WATER LOOP DEMAND BRANCH 1,CHILLED WATER LOOP,Plant Demand,NODE 24,NODE 51
   Branch,3,CHILLED WATER LOOP DEMAND BRANCH 2,CHILLED WATER LOOP,Plant Demand,NODE 76,NODE 77
   Branch,4,CHILLED WATER LOOP DEMAND BRANCH 3,CHILLED WATER LOOP,Plant Demand,NODE 102,NODE 103
   Branch,5,CHILLED WATER LOOP DEMAND BRANCH 4,CHILLED WATER LOOP,Plant Demand,NODE 178,NODE 179
   Branch,6,CHILLED WATER LOOP DEMAND BYPASS BRANCH,CHILLED WATER LOOP,Plant Demand,CHILLED WATER LOOP DEMAND BYPASS PIPE INLET NODE,CHILLED WATER LOOP DEMAND BYPASS PIPE OUTLET NODE
   Branch,7,CHILLED WATER LOOP DEMAND OUTLET BRANCH,CHILLED WATER LOOP,Plant Demand,CHILLED WATER LOOP DEMAND OUTLET PIPE NODE,NODE 23
 Branch List,7,CONDENSER WATER LOOP SUPPLY BRANCHES,CONDENSER WATER LOOP,Plant Supply,4
   Branch,1,CONDENSER WATER LOOP SUPPLY INLET BRANCH,CONDENSER WATER LOOP,Plant Supply,NODE 32,NODE 38
   Branch,2,CONDENSER WATER LOOP SUPPLY BRANCH 1,CONDENSER WATER LOOP,Plant Supply,NODE 34,NODE 39
   Branch,3,CONDENSER WATER LOOP SUPPLY BRANCH 2,CONDENSER WATER LOOP,Plant Supply,NODE 40,NODE 41
   Branch,4,CONDENSER WATER LOOP SUPPLY OUTLET BRANCH,CONDENSER WATER LOOP,Plant Supply,NODE 42,NODE 33
 Branch List,8,CONDENSER WATER LOOP DEMAND BRANCHES,CONDENSER WATER LOOP,Plant Demand,5
   Branch,1,CONDENSER WATER LOOP DEMAND INLET BRANCH,CONDENSER WATER LOOP,Plant Demand,NODE 35,CONDENSER WATER LOOP DEMAND INLET PIPE NODE
   Branch,2,CONDENSER WATER LOOP DEMAND BRANCH 1,CONDENSER WATER LOOP,Plant Demand,NODE 37,NODE 43
   Branch,3,CONDENSER WATER LOOP DEMAND BRANCH 2,CONDENSER WATER LOOP,Plant Demand,NODE 44,NODE 45
   Branch,4,CONDENSER WATER LOOP DEMAND BYPASS BRANCH,CONDENSER WATER LOOP,Plant Demand,CONDENSER WATER LOOP DEMAND BYPASS PIPE INLET NODE,CONDENSER WATER LOOP DEMAND BYPASS PIPE OUTLET NODE
   Branch,5,CONDENSER WATER LOOP DEMAND OUTLET BRANCH,CONDENSER WATER LOOP,Plant Demand,CONDENSER WATER LOOP DEMAND OUTLET PIPE NODE,NODE 36
 Branch List,9,MAIN SERVICE WATER LOOP SUPPLY BRANCHES,MAIN SERVICE WATER LOOP,Plant Supply,4
   Branch,1,MAIN SERVICE WATER LOOP SUPPLY INLET BRANCH,MAIN SERVICE WATER LOOP,Plant Supply,NODE 123,NODE 129
   Branch,2,MAIN SERVICE WATER LOOP SUPPLY BRANCH 1,MAIN SERVICE WATER LOOP,Plant Supply,NODE 125,NODE 130
   Branch,3,MAIN SERVICE WATER LOOP SUPPLY BRANCH 2,MAIN SERVICE WATER LOOP,Plant Supply,NODE 131,NODE 132
   Branch,4,MAIN SERVICE WATER LOOP SUPPLY OUTLET BRANCH,MAIN SERVICE WATER LOOP,Plant Supply,NODE 134,NODE 124
 Branch List,10,MAIN SERVICE WATER LOOP DEMAND BRANCHES,MAIN SERVICE WATER LOOP,Plant Demand,19
   Branch,1,MAIN SERVICE WATER LOOP DEMAND INLET BRANCH,MAIN SERVICE WATER LOOP,Plant Demand,NODE 126,NODE 135
   Branch,2,MAIN SERVICE WATER LOOP DEMAND BRANCH 1,MAIN SERVICE WATER LOOP,Plant Demand,NODE 128,NODE 133
   Branch,3,MAIN SERVICE WATER LOOP DEMAND BRANCH 2,MAIN SERVICE WATER LOOP,Plant Demand,NODE 137,NODE 138
   Branch,4,MAIN SERVICE WATER LOOP DEMAND BRANCH 3,MAIN SERVICE WATER LOOP,Plant Demand,NODE 139,NODE 140
   Branch,5,MAIN SERVICE WATER LOOP DEMAND BRANCH 4,MAIN SERVICE WATER LOOP,Plant Demand,NODE 141,NODE 142
   Branch,6,MAIN SERVICE WATER LOOP DEMAND BRANCH 5,MAIN SERVICE WATER LOOP,Plant Demand,NODE 143,NODE 144
   Branch,7,MAIN SERVICE WATER LOOP DEMAND BRANCH 6,MAIN SERVICE WATER LOOP,Plant Demand,NODE 145,NODE 146
   Branch,8,MAIN SERVICE WATER LOOP DEMAND BRANCH 7,MAIN SERVICE WATER LOOP,Plant Demand,NODE 147,NODE 148
   Branch,9,MAIN SERVICE WATER LOOP DEMAND BRANCH 8,MAIN SERVICE WATER LOOP,Plant Demand,NODE 149,NODE 150
   Branch,10,MAIN SERVICE WATER LOOP DEMAND BRANCH 9,MAIN SERVICE WATER LOOP,Plant Demand,NODE 151,NODE 152
   Branch,11,MAIN SERVICE WATER LOOP DEMAND BRANCH 10,MAIN SERVICE WATER LOOP,Plant Demand,NODE 153,NODE 154
   Branch,12,MAIN SERVICE WATER LOOP DEMAND BRANCH 11,MAIN SERVICE WATER LOOP,Plant Demand,NODE 155,NODE 156
   Branch,13,MAIN SERVICE WATER LOOP DEMAND BRANCH 12,MAIN SERVICE WATER LOOP,Plant Demand,NODE 157,NODE 158
   Branch,14,MAIN SERVICE WATER LOOP DEMAND BRANCH 13,MAIN SERVICE WATER LOOP,Plant Demand,NODE 159,NODE 160
   Branch,15,MAIN SERVICE WATER LOOP DEMAND BRANCH 14,MAIN SERVICE WATER LOOP,Plant Demand,NODE 161,NODE 162
   Branch,16,MAIN SERVICE WATER LOOP DEMAND BRANCH 15,MAIN SERVICE WATER LOOP,Plant Demand,NODE 163,NODE 164
   Branch,17,MAIN SERVICE WATER LOOP DEMAND BRANCH 16,MAIN SERVICE WATER LOOP,Plant Demand,NODE 165,NODE 166
   Branch,18,MAIN SERVICE WATER LOOP DEMAND BYPASS BRANCH,MAIN SERVICE WATER LOOP,Plant Demand,MAIN SERVICE WATER LOOP DEMAND BYPASS PIPE INLET NODE,MAIN SERVICE WATER LOOP DEMAND BYPASS PIPE OUTLET NODE
   Branch,19,MAIN SERVICE WATER LOOP DEMAND OUTLET BRANCH,MAIN SERVICE WATER LOOP,Plant Demand,NODE 136,NODE 127
! ===============================================================
! <#Supply Air Paths>,<Number of Supply Air Paths>
 #Supply Air Paths,4
! <Supply Air Path>,<Supply Air Path Count>,<Supply Air Path Name>,<AirLoopHVAC Name>
! <#Components on Supply Air Path>,<Number of Components>
! <Supply Air Path Component>,<Component Count>,<Component Type>,<Component Name>,<AirLoopHVAC Name>
! <#Outlet Nodes on Supply Air Path Component>,<Number of Nodes>
! <Supply Air Path Component Nodes>,<Node Count>,<Component Type>,<Component Name>,<Inlet Node Name>,<Outlet Node Name>,<AirLoopHVAC Name>
 Supply Air Path,1,VAV WITH REHEAT NODE 48 SUPPLY PATH,VAV WITH REHEAT
   #Components on Supply Air Path,1
   Supply Air Path Component,1,AIRLOOPHVAC:ZONESPLITTER,AIR LOOP HVAC ZONE SPLITTER 1,VAV WITH REHEAT
     #Outlet Nodes on Supply Air Path Component,5
     Supply Air Path Component Nodes,1,AIRLOOPHVAC:ZONESPLITTER,AIR LOOP HVAC ZONE SPLITTER 1,NODE 48,NODE 58,VAV WITH REHEAT
     Supply Air Path Component Nodes,2,AIRLOOPHVAC:ZONESPLITTER,AIR LOOP HVAC ZONE SPLITTER 1,NODE 48,NODE 61,VAV WITH REHEAT
     Supply Air Path Component Nodes,3,AIRLOOPHVAC:ZONESPLITTER,AIR LOOP HVAC ZONE SPLITTER 1,NODE 48,NODE 64,VAV WITH REHEAT
     Supply Air Path Component Nodes,4,AIRLOOPHVAC:ZONESPLITTER,AIR LOOP HVAC ZONE SPLITTER 1,NODE 48,NODE 67,VAV WITH REHEAT
     Supply Air Path Component Nodes,5,AIRLOOPHVAC:ZONESPLITTER,AIR LOOP HVAC ZONE SPLITTER 1,NODE 48,NODE 70,VAV WITH REHEAT
! <#Nodes on Supply Air Path>,<Number of Nodes>
! <Supply Air Path Node>,<Node Type>,<Node Count>,<Node Name>,<AirLoopHVAC Name>
#Nodes on Supply Air Path,6
   Supply Air Path Node,Inlet Node,1,NODE 48,VAV WITH REHEAT
   Supply Air Path Node,Outlet Node,2,NODE 58,VAV WITH REHEAT
   Supply Air Path Node,Outlet Node,3,NODE 61,VAV WITH REHEAT
   Supply Air Path Node,Outlet Node,4,NODE 64,VAV WITH REHEAT
   Supply Air Path Node,Outlet Node,5,NODE 67,VAV WITH REHEAT
   Supply Air Path Node,Outlet Node,6,NODE 70,VAV WITH REHEAT
 Supply Air Path,2,VAV WITH REHEAT 1 NODE 73 SUPPLY PATH,VAV WITH REHEAT 1
   #Components on Supply Air Path,1
   Supply Air Path Component,1,AIRLOOPHVAC:ZONESPLITTER,AIR LOOP HVAC ZONE SPLITTER 2,VAV WITH REHEAT 1
     #Outlet Nodes on Supply Air Path Component,5
     Supply Air Path Component Nodes,1,AIRLOOPHVAC:ZONESPLITTER,AIR LOOP HVAC ZONE SPLITTER 2,NODE 73,NODE 84,VAV WITH REHEAT 1
     Supply Air Path Component Nodes,2,AIRLOOPHVAC:ZONESPLITTER,AIR LOOP HVAC ZONE SPLITTER 2,NODE 73,NODE 87,VAV WITH REHEAT 1
     Supply Air Path Component Nodes,3,AIRLOOPHVAC:ZONESPLITTER,AIR LOOP HVAC ZONE SPLITTER 2,NODE 73,NODE 90,VAV WITH REHEAT 1
     Supply Air Path Component Nodes,4,AIRLOOPHVAC:ZONESPLITTER,AIR LOOP HVAC ZONE SPLITTER 2,NODE 73,NODE 93,VAV WITH REHEAT 1
     Supply Air Path Component Nodes,5,AIRLOOPHVAC:ZONESPLITTER,AIR LOOP HVAC ZONE SPLITTER 2,NODE 73,NODE 96,VAV WITH REHEAT 1
! <#Nodes on Supply Air Path>,<Number of Nodes>
! <Supply Air Path Node>,<Node Type>,<Node Count>,<Node Name>,<AirLoopHVAC Name>
#Nodes on Supply Air Path,6
   Supply Air Path Node,Inlet Node,1,NODE 73,VAV WITH REHEAT 1
   Supply Air Path Node,Outlet Node,2,NODE 84,VAV WITH REHEAT 1
   Supply Air Path Node,Outlet Node,3,NODE 87,VAV WITH REHEAT 1
   Supply Air Path Node,Outlet Node,4,NODE 90,VAV WITH REHEAT 1
   Supply Air Path Node,Outlet Node,5,NODE 93,VAV WITH REHEAT 1
   Supply Air Path Node,Outlet Node,6,NODE 96,VAV WITH REHEAT 1
 Supply Air Path,3,VAV WITH REHEAT 2 NODE 99 SUPPLY PATH,VAV WITH REHEAT 2
   #Components on Supply Air Path,1
   Supply Air Path Component,1,AIRLOOPHVAC:ZONESPLITTER,AIR LOOP HVAC ZONE SPLITTER 3,VAV WITH REHEAT 2
     #Outlet Nodes on Supply Air Path Component,4
     Supply Air Path Component Nodes,1,AIRLOOPHVAC:ZONESPLITTER,AIR LOOP HVAC ZONE SPLITTER 3,NODE 99,NODE 110,VAV WITH REHEAT 2
     Supply Air Path Component Nodes,2,AIRLOOPHVAC:ZONESPLITTER,AIR LOOP HVAC ZONE SPLITTER 3,NODE 99,NODE 113,VAV WITH REHEAT 2
     Supply Air Path Component Nodes,3,AIRLOOPHVAC:ZONESPLITTER,AIR LOOP HVAC ZONE SPLITTER 3,NODE 99,NODE 116,VAV WITH REHEAT 2
     Supply Air Path Component Nodes,4,AIRLOOPHVAC:ZONESPLITTER,AIR LOOP HVAC ZONE SPLITTER 3,NODE 99,NODE 119,VAV WITH REHEAT 2
! <#Nodes on Supply Air Path>,<Number of Nodes>
! <Supply Air Path Node>,<Node Type>,<Node Count>,<Node Name>,<AirLoopHVAC Name>
#Nodes on Supply Air Path,5
   Supply Air Path Node,Inlet Node,1,NODE 99,VAV WITH REHEAT 2
   Supply Air Path Node,Outlet Node,2,NODE 110,VAV WITH REHEAT 2
   Supply Air Path Node,Outlet Node,3,NODE 113,VAV WITH REHEAT 2
   Supply Air Path Node,Outlet Node,4,NODE 116,VAV WITH REHEAT 2
   Supply Air Path Node,Outlet Node,5,NODE 119,VAV WITH REHEAT 2
 Supply Air Path,4,VAV WITH REHEAT 3 NODE 169 SUPPLY PATH,VAV WITH REHEAT 3
   #Components on Supply Air Path,1
   Supply Air Path Component,1,AIRLOOPHVAC:ZONESPLITTER,AIR LOOP HVAC ZONE SPLITTER 4,VAV WITH REHEAT 3
     #Outlet Nodes on Supply Air Path Component,1
     Supply Air Path Component Nodes,1,AIRLOOPHVAC:ZONESPLITTER,AIR LOOP HVAC ZONE SPLITTER 4,NODE 169,NODE 177,VAV WITH REHEAT 3
! <#Nodes on Supply Air Path>,<Number of Nodes>
! <Supply Air Path Node>,<Node Type>,<Node Count>,<Node Name>,<AirLoopHVAC Name>
#Nodes on Supply Air Path,2
   Supply Air Path Node,Inlet Node,1,NODE 169,VAV WITH REHEAT 3
   Supply Air Path Node,Outlet Node,2,NODE 177,VAV WITH REHEAT 3
! ===============================================================
! <#Return Air Paths>,<Number of Return Air Paths>
 #Return Air Paths,4
! <Return Air Path>,<Return Air Path Count>,<Return Air Path Name>,<AirLoopHVAC Name>
! <#Components on Return Air Path>,<Number of Components>
! <Return Air Path Component>,<Component Count>,<Component Type>,<Component Name>,<AirLoopHVAC Name>
! <#Inlet Nodes on Return Air Path Component>,<Number of Nodes>
! <Return Air Path Component Nodes>,<Node Count>,<Component Type>,<Component Name>,<Inlet Node Name>,<Outlet Node Name>,<AirLoopHVAC Name>
 Return Air Path,1,VAV WITH REHEAT RETURN PATH,VAV WITH REHEAT
   #Components on Return Air Path,1
   Return Air Path Component,1,AIRLOOPHVAC:ZONEMIXER,AIR LOOP HVAC ZONE MIXER 1,VAV WITH REHEAT
     #Inlet Nodes on Return Air Path Component,5
     Return Air Path Component Nodes,1,AIRLOOPHVAC:ZONEMIXER,AIR LOOP HVAC ZONE MIXER 1,NODE 57,NODE 49,VAV WITH REHEAT
     Return Air Path Component Nodes,2,AIRLOOPHVAC:ZONEMIXER,AIR LOOP HVAC ZONE MIXER 1,NODE 60,NODE 49,VAV WITH REHEAT
     Return Air Path Component Nodes,3,AIRLOOPHVAC:ZONEMIXER,AIR LOOP HVAC ZONE MIXER 1,NODE 63,NODE 49,VAV WITH REHEAT
     Return Air Path Component Nodes,4,AIRLOOPHVAC:ZONEMIXER,AIR LOOP HVAC ZONE MIXER 1,NODE 66,NODE 49,VAV WITH REHEAT
     Return Air Path Component Nodes,5,AIRLOOPHVAC:ZONEMIXER,AIR LOOP HVAC ZONE MIXER 1,NODE 69,NODE 49,VAV WITH REHEAT
! <#Nodes on Return Air Path>,<Number of Nodes>
! <Return Air Path Node>,<Node Type>,<Node Count>,<Node Name>,<AirLoopHVAC Name>
   #Nodes on Return Air Path,6
   Return Air Path Node,Outlet Node,1,NODE 49,VAV WITH REHEAT
   Return Air Path Node,Inlet Node,2,NODE 57,VAV WITH REHEAT
   Return Air Path Node,Inlet Node,3,NODE 60,VAV WITH REHEAT
   Return Air Path Node,Inlet Node,4,NODE 63,VAV WITH REHEAT
   Return Air Path Node,Inlet Node,5,NODE 66,VAV WITH REHEAT
   Return Air Path Node,Inlet Node,6,NODE 69,VAV WITH REHEAT
 Return Air Path,2,VAV WITH REHEAT 1 RETURN PATH,VAV WITH REHEAT 1
   #Components on Return Air Path,1
   Return Air Path Component,1,AIRLOOPHVAC:ZONEMIXER,AIR LOOP HVAC ZONE MIXER 2,VAV WITH REHEAT 1
     #Inlet Nodes on Return Air Path Component,5
     Return Air Path Component Nodes,1,AIRLOOPHVAC:ZONEMIXER,AIR LOOP HVAC ZONE MIXER 2,NODE 83,NODE 74,VAV WITH REHEAT 1
     Return Air Path Component Nodes,2,AIRLOOPHVAC:ZONEMIXER,AIR LOOP HVAC ZONE MIXER 2,NODE 86,NODE 74,VAV WITH REHEAT 1
     Return Air Path Component Nodes,3,AIRLOOPHVAC:ZONEMIXER,AIR LOOP HVAC ZONE MIXER 2,NODE 89,NODE 74,VAV WITH REHEAT 1
     Return Air Path Component Nodes,4,AIRLOOPHVAC:ZONEMIXER,AIR LOOP HVAC ZONE MIXER 2,NODE 92,NODE 74,VAV WITH REHEAT 1
     Return Air Path Component Nodes,5,AIRLOOPHVAC:ZONEMIXER,AIR LOOP HVAC ZONE MIXER 2,NODE 95,NODE 74,VAV WITH REHEAT 1
! <#Nodes on Return Air Path>,<Number of Nodes>
! <Return Air Path Node>,<Node Type>,<Node Count>,<Node Name>,<AirLoopHVAC Name>
   #Nodes on Return Air Path,6
   Return Air Path Node,Outlet Node,1,NODE 74,VAV WITH REHEAT 1
   Return Air Path Node,Inlet Node,2,NODE 83,VAV WITH REHEAT 1
   Return Air Path Node,Inlet Node,3,NODE 86,VAV WITH REHEAT 1
   Return Air Path Node,Inlet Node,4,NODE 89,VAV WITH REHEAT 1
   Return Air Path Node,Inlet Node,5,NODE 92,VAV WITH REHEAT 1
   Return Air Path Node,Inlet Node,6,NODE 95,VAV WITH REHEAT 1
 Return Air Path,3,VAV WITH REHEAT 2 RETURN PATH,VAV WITH REHEAT 2
   #Components on Return Air Path,1
   Return Air Path Component,1,AIRLOOPHVAC:ZONEMIXER,AIR LOOP HVAC ZONE MIXER 3,VAV WITH REHEAT 2
     #Inlet Nodes on Return Air Path Component,4
     Return Air Path Component Nodes,1,AIRLOOPHVAC:ZONEMIXER,AIR LOOP HVAC ZONE MIXER 3,NODE 109,NODE 100,VAV WITH REHEAT 2
     Return Air Path Component Nodes,2,AIRLOOPHVAC:ZONEMIXER,AIR LOOP HVAC ZONE MIXER 3,NODE 112,NODE 100,VAV WITH REHEAT 2
     Return Air Path Component Nodes,3,AIRLOOPHVAC:ZONEMIXER,AIR LOOP HVAC ZONE MIXER 3,NODE 115,NODE 100,VAV WITH REHEAT 2
     Return Air Path Component Nodes,4,AIRLOOPHVAC:ZONEMIXER,AIR LOOP HVAC ZONE MIXER 3,NODE 118,NODE 100,VAV WITH REHEAT 2
! <#Nodes on Return Air Path>,<Number of Nodes>
! <Return Air Path Node>,<Node Type>,<Node Count>,<Node Name>,<AirLoopHVAC Name>
   #Nodes on Return Air Path,5
   Return Air Path Node,Outlet Node,1,NODE 100,VAV WITH REHEAT 2
   Return Air Path Node,Inlet Node,2,NODE 109,VAV WITH REHEAT 2
   Return Air Path Node,Inlet Node,3,NODE 112,VAV WITH REHEAT 2
   Return Air Path Node,Inlet Node,4,NODE 115,VAV WITH REHEAT 2
   Return Air Path Node,Inlet Node,5,NODE 118,VAV WITH REHEAT 2
 Return Air Path,4,VAV WITH REHEAT 3 RETURN PATH,VAV WITH REHEAT 3
   #Components on Return Air Path,1
   Return Air Path Component,1,AIRLOOPHVAC:ZONEMIXER,AIR LOOP HVAC ZONE MIXER 4,VAV WITH REHEAT 3
     #Inlet Nodes on Return Air Path Component,1
     Return Air Path Component Nodes,1,AIRLOOPHVAC:ZONEMIXER,AIR LOOP HVAC ZONE MIXER 4,NODE 120,NODE 170,VAV WITH REHEAT 3
! <#Nodes on Return Air Path>,<Number of Nodes>
! <Return Air Path Node>,<Node Type>,<Node Count>,<Node Name>,<AirLoopHVAC Name>
   #Nodes on Return Air Path,2
   Return Air Path Node,Outlet Node,1,NODE 170,VAV WITH REHEAT 3
   Return Air Path Node,Inlet Node,2,NODE 120,VAV WITH REHEAT 3
! ===============================================================
! #Outdoor Air Nodes,<Number of Outdoor Air Nodes>
 #Outdoor Air Nodes,5
! <Outdoor Air Node>,<NodeNumber>,<Node Name>
 Outdoor Air Node,164,NODE 52
 Outdoor Air Node,165,NODE 78
 Outdoor Air Node,166,NODE 104
 Outdoor Air Node,167,NODE 172
 Outdoor Air Node,168,MODEL OUTDOOR AIR NODE
! ===============================================================
! <#Component Sets>,<Number of Component Sets>
 #Component Sets,94
! <Component Set>,<Component Set Count>,<Parent Object Type>,<Parent Object Name>,<Component Type>,<Component Name>,<Inlet Node ID>,<Outlet Node ID>,<Description>
 Component Set,1,BRANCH,VAV WITH REHEAT MAIN BRANCH,AIRLOOPHVAC:OUTDOORAIRSYSTEM,AIR LOOP HVAC OUTDOOR AIR SYSTEM 1,NODE 46,NODE 56,Air Nodes
 Component Set,2,BRANCH,VAV WITH REHEAT MAIN BRANCH,COIL:COOLING:WATER,COIL COOLING WATER 1,NODE 56,NODE 55,Air Nodes
 Component Set,3,BRANCH,VAV WITH REHEAT MAIN BRANCH,COIL:HEATING:ELECTRIC,COIL HEATING ELECTRIC 1,NODE 55,NODE 54,Air Nodes
 Component Set,4,BRANCH,VAV WITH REHEAT MAIN BRANCH,FAN:VARIABLEVOLUME,FAN VARIABLE VOLUME 1,NODE 54,NODE 47,Air Nodes
 Component Set,5,BRANCH,VAV WITH REHEAT 1 MAIN BRANCH,AIRLOOPHVAC:OUTDOORAIRSYSTEM,AIR LOOP HVAC OUTDOOR AIR SYSTEM 2,NODE 71,NODE 82,Air Nodes
 Component Set,6,BRANCH,VAV WITH REHEAT 1 MAIN BRANCH,COIL:COOLING:WATER,COIL COOLING WATER 2,NODE 82,NODE 81,Air Nodes
 Component Set,7,BRANCH,VAV WITH REHEAT 1 MAIN BRANCH,COIL:HEATING:ELECTRIC,COIL HEATING ELECTRIC 7,NODE 81,NODE 80,Air Nodes
 Component Set,8,BRANCH,VAV WITH REHEAT 1 MAIN BRANCH,FAN:VARIABLEVOLUME,FAN VARIABLE VOLUME 2,NODE 80,NODE 72,Air Nodes
 Component Set,9,BRANCH,VAV WITH REHEAT 2 MAIN BRANCH,AIRLOOPHVAC:OUTDOORAIRSYSTEM,AIR LOOP HVAC OUTDOOR AIR SYSTEM 3,NODE 97,NODE 108,Air Nodes
 Component Set,10,BRANCH,VAV WITH REHEAT 2 MAIN BRANCH,COIL:COOLING:WATER,COIL COOLING WATER 3,NODE 108,NODE 107,Air Nodes
 Component Set,11,BRANCH,VAV WITH REHEAT 2 MAIN BRANCH,COIL:HEATING:ELECTRIC,COIL HEATING ELECTRIC 13,NODE 107,NODE 106,Air Nodes
 Component Set,12,BRANCH,VAV WITH REHEAT 2 MAIN BRANCH,FAN:VARIABLEVOLUME,FAN VARIABLE VOLUME 3,NODE 106,NODE 98,Air Nodes
 Component Set,13,BRANCH,VAV WITH REHEAT 3 MAIN BRANCH,AIRLOOPHVAC:OUTDOORAIRSYSTEM,AIR LOOP HVAC OUTDOOR AIR SYSTEM 4,NODE 167,NODE 174,Air Nodes
 Component Set,14,BRANCH,VAV WITH REHEAT 3 MAIN BRANCH,COIL:COOLING:WATER,COIL COOLING WATER 4,NODE 174,NODE 175,Air Nodes
 Component Set,15,BRANCH,VAV WITH REHEAT 3 MAIN BRANCH,COIL:HEATING:ELECTRIC,COIL HEATING ELECTRIC 19,NODE 175,NODE 176,Air Nodes
 Component Set,16,BRANCH,VAV WITH REHEAT 3 MAIN BRANCH,FAN:VARIABLEVOLUME,FAN VARIABLE VOLUME 4,NODE 176,NODE 168,Air Nodes
 Component Set,17,BRANCH,CHILLED WATER LOOP SUPPLY INLET BRANCH,PUMP:CONSTANTSPEED,PUMP CONSTANT SPEED 1,NODE 19,NODE 25,Water Nodes
 Component Set,18,BRANCH,CHILLED WATER LOOP SUPPLY BRANCH 1,CHILLER:ELECTRIC:EIR,PRIMARY CHILLER WATERCOOLED SCROLL 82TONS 0.8KW/TON,NODE 21,NODE 26,Chilled Water Nodes
 Component Set,19,BRANCH,CHILLED WATER LOOP SUPPLY BRANCH 2,CHILLER:ELECTRIC:EIR,SECONDARY CHILLER WATERCOOLED SCROLL 0TONS 0.8KW/TON,NODE 27,NODE 28,Chilled Water Nodes
 Component Set,20,BRANCH,CHILLED WATER LOOP SUPPLY BRANCH 3,PIPE:ADIABATIC,PIPE ADIABATIC 1,NODE 29,NODE 30,Pipe Nodes
 Component Set,21,BRANCH,CHILLED WATER LOOP SUPPLY OUTLET BRANCH,PIPE:ADIABATIC,PIPE ADIABATIC 2,NODE 31,NODE 20,Pipe Nodes
 Component Set,22,BRANCH,CHILLED WATER LOOP DEMAND INLET BRANCH,PIPE:ADIABATIC,CHILLED WATER LOOP DEMAND INLET PIPE,NODE 22,CHILLED WATER LOOP DEMAND INLET PIPE NODE,Pipe Nodes
 Component Set,23,BRANCH,CHILLED WATER LOOP DEMAND BRANCH 1,COIL:COOLING:WATER,COIL COOLING WATER 1,NODE 24,NODE 51,Water Nodes
 Component Set,24,BRANCH,CHILLED WATER LOOP DEMAND BRANCH 2,COIL:COOLING:WATER,COIL COOLING WATER 2,NODE 76,NODE 77,Water Nodes
 Component Set,25,BRANCH,CHILLED WATER LOOP DEMAND BRANCH 3,COIL:COOLING:WATER,COIL COOLING WATER 3,NODE 102,NODE 103,Water Nodes
 Component Set,26,BRANCH,CHILLED WATER LOOP DEMAND BRANCH 4,COIL:COOLING:WATER,COIL COOLING WATER 4,NODE 178,NODE 179,Water Nodes
 Component Set,27,BRANCH,CHILLED WATER LOOP DEMAND BYPASS BRANCH,PIPE:ADIABATIC,CHILLED WATER LOOP DEMAND BYPASS PIPE,CHILLED WATER LOOP DEMAND BYPASS PIPE INLET NODE,CHILLED WATER LOOP DEMAND BYPASS PIPE OUTLET NODE,Pipe Nodes
 Component Set,28,BRANCH,CHILLED WATER LOOP DEMAND OUTLET BRANCH,PIPE:ADIABATIC,CHILLED WATER LOOP DEMAND OUTLET PIPE,CHILLED WATER LOOP DEMAND OUTLET PIPE NODE,NODE 23,Pipe Nodes
 Component Set,29,BRANCH,CONDENSER WATER LOOP SUPPLY INLET BRANCH,PUMP:CONSTANTSPEED,PUMP CONSTANT SPEED 2,NODE 32,NODE 38,Water Nodes
 Component Set,30,BRANCH,CONDENSER WATER LOOP SUPPLY BRANCH 1,COOLINGTOWER:SINGLESPEED,COOLING TOWER SINGLE SPEED 1,NODE 34,NODE 39,Chilled Water Nodes
 Component Set,31,BRANCH,CONDENSER WATER LOOP SUPPLY BRANCH 2,PIPE:ADIABATIC,PIPE ADIABATIC 3,NODE 40,NODE 41,Pipe Nodes
 Component Set,32,BRANCH,CONDENSER WATER LOOP SUPPLY OUTLET BRANCH,PIPE:ADIABATIC,PIPE ADIABATIC 4,NODE 42,NODE 33,Pipe Nodes
 Component Set,33,BRANCH,CONDENSER WATER LOOP DEMAND INLET BRANCH,PIPE:ADIABATIC,CONDENSER WATER LOOP DEMAND INLET PIPE,NODE 35,CONDENSER WATER LOOP DEMAND INLET PIPE NODE,Pipe Nodes
 Component Set,34,BRANCH,CONDENSER WATER LOOP DEMAND BRANCH 1,CHILLER:ELECTRIC:EIR,PRIMARY CHILLER WATERCOOLED SCROLL 82TONS 0.8KW/TON,NODE 37,NODE 43,Condenser Water Nodes
 Component Set,35,BRANCH,CONDENSER WATER LOOP DEMAND BRANCH 2,CHILLER:ELECTRIC:EIR,SECONDARY CHILLER WATERCOOLED SCROLL 0TONS 0.8KW/TON,NODE 44,NODE 45,Condenser Water Nodes
 Component Set,36,BRANCH,CONDENSER WATER LOOP DEMAND BYPASS BRANCH,PIPE:ADIABATIC,CONDENSER WATER LOOP DEMAND BYPASS PIPE,CONDENSER WATER LOOP DEMAND BYPASS PIPE INLET NODE,CONDENSER WATER LOOP DEMAND BYPASS PIPE OUTLET NODE,Pipe Nodes
 Component Set,37,BRANCH,CONDENSER WATER LOOP DEMAND OUTLET BRANCH,PIPE:ADIABATIC,CONDENSER WATER LOOP DEMAND OUTLET PIPE,CONDENSER WATER LOOP DEMAND OUTLET PIPE NODE,NODE 36,Pipe Nodes
 Component Set,38,BRANCH,MAIN SERVICE WATER LOOP SUPPLY INLET BRANCH,PUMP:CONSTANTSPEED,SERVICE WATER LOOP PUMP,NODE 123,NODE 129,Water Nodes
 Component Set,39,BRANCH,MAIN SERVICE WATER LOOP SUPPLY BRANCH 1,WATERHEATER:MIXED,100.0GAL ELECTRICITY WATER HEATER - 100KBTU/HR 1.0 THERM EFF,NODE 125,NODE 130,Use Side Water Nodes
 Component Set,40,BRANCH,MAIN SERVICE WATER LOOP SUPPLY BRANCH 2,PIPE:ADIABATIC,PIPE ADIABATIC 5,NODE 131,NODE 132,Pipe Nodes
 Component Set,41,BRANCH,MAIN SERVICE WATER LOOP SUPPLY OUTLET BRANCH,PIPE:ADIABATIC,PIPE ADIABATIC 7,NODE 134,NODE 124,Pipe Nodes
 Component Set,42,BRANCH,MAIN SERVICE WATER LOOP DEMAND INLET BRANCH,PIPE:ADIABATIC,PIPE ADIABATIC 8,NODE 126,NODE 135,Pipe Nodes
 Component Set,43,BRANCH,MAIN SERVICE WATER LOOP DEMAND BRANCH 1,PIPE:ADIABATIC,PIPE ADIABATIC 6,NODE 128,NODE 133,Pipe Nodes
 Component Set,44,BRANCH,MAIN SERVICE WATER LOOP DEMAND BRANCH 2,WATERUSE:CONNECTIONS,WATER USE CONNECTIONS 1,NODE 137,NODE 138,DHW Nodes
 Component Set,45,BRANCH,MAIN SERVICE WATER LOOP DEMAND BRANCH 3,WATERUSE:CONNECTIONS,WATER USE CONNECTIONS 2,NODE 139,NODE 140,DHW Nodes
 Component Set,46,BRANCH,MAIN SERVICE WATER LOOP DEMAND BRANCH 4,WATERUSE:CONNECTIONS,WATER USE CONNECTIONS 3,NODE 141,NODE 142,DHW Nodes
 Component Set,47,BRANCH,MAIN SERVICE WATER LOOP DEMAND BRANCH 5,WATERUSE:CONNECTIONS,WATER USE CONNECTIONS 4,NODE 143,NODE 144,DHW Nodes
 Component Set,48,BRANCH,MAIN SERVICE WATER LOOP DEMAND BRANCH 6,WATERUSE:CONNECTIONS,WATER USE CONNECTIONS 5,NODE 145,NODE 146,DHW Nodes
 Component Set,49,BRANCH,MAIN SERVICE WATER LOOP DEMAND BRANCH 7,WATERUSE:CONNECTIONS,WATER USE CONNECTIONS 6,NODE 147,NODE 148,DHW Nodes
 Component Set,50,BRANCH,MAIN SERVICE WATER LOOP DEMAND BRANCH 8,WATERUSE:CONNECTIONS,WATER USE CONNECTIONS 7,NODE 149,NODE 150,DHW Nodes
 Component Set,51,BRANCH,MAIN SERVICE WATER LOOP DEMAND BRANCH 9,WATERUSE:CONNECTIONS,WATER USE CONNECTIONS 8,NODE 151,NODE 152,DHW Nodes
 Component Set,52,BRANCH,MAIN SERVICE WATER LOOP DEMAND BRANCH 10,WATERUSE:CONNECTIONS,WATER USE CONNECTIONS 9,NODE 153,NODE 154,DHW Nodes
 Component Set,53,BRANCH,MAIN SERVICE WATER LOOP DEMAND BRANCH 11,WATERUSE:CONNECTIONS,WATER USE CONNECTIONS 10,NODE 155,NODE 156,DHW Nodes
 Component Set,54,BRANCH,MAIN SERVICE WATER LOOP DEMAND BRANCH 12,WATERUSE:CONNECTIONS,WATER USE CONNECTIONS 11,NODE 157,NODE 158,DHW Nodes
 Component Set,55,BRANCH,MAIN SERVICE WATER LOOP DEMAND BRANCH 13,WATERUSE:CONNECTIONS,WATER USE CONNECTIONS 12,NODE 159,NODE 160,DHW Nodes
 Component Set,56,BRANCH,MAIN SERVICE WATER LOOP DEMAND BRANCH 14,WATERUSE:CONNECTIONS,WATER USE CONNECTIONS 13,NODE 161,NODE 162,DHW Nodes
 Component Set,57,BRANCH,MAIN SERVICE WATER LOOP DEMAND BRANCH 15,WATERUSE:CONNECTIONS,WATER USE CONNECTIONS 14,NODE 163,NODE 164,DHW Nodes
 Component Set,58,BRANCH,MAIN SERVICE WATER LOOP DEMAND BRANCH 16,WATERUSE:CONNECTIONS,WATER USE CONNECTIONS 15,NODE 165,NODE 166,DHW Nodes
 Component Set,59,BRANCH,MAIN SERVICE WATER LOOP DEMAND BYPASS BRANCH,PIPE:ADIABATIC,MAIN SERVICE WATER LOOP DEMAND BYPASS PIPE,MAIN SERVICE WATER LOOP DEMAND BYPASS PIPE INLET NODE,MAIN SERVICE WATER LOOP DEMAND BYPASS PIPE OUTLET NODE,Pipe Nodes
 Component Set,60,BRANCH,MAIN SERVICE WATER LOOP DEMAND OUTLET BRANCH,PIPE:ADIABATIC,PIPE ADIABATIC 9,NODE 136,NODE 127,Pipe Nodes
 Component Set,61,ZONEHVAC:AIRDISTRIBUTIONUNIT,ADU AIR TERMINAL SINGLE DUCT VAV REHEAT 4,AIRTERMINAL:SINGLEDUCT:VAV:REHEAT,AIR TERMINAL SINGLE DUCT VAV REHEAT 4,NODE 67,NODE 65,Air Nodes
 Component Set,62,ZONEHVAC:AIRDISTRIBUTIONUNIT,ADU AIR TERMINAL SINGLE DUCT VAV REHEAT 7,AIRTERMINAL:SINGLEDUCT:VAV:REHEAT,AIR TERMINAL SINGLE DUCT VAV REHEAT 7,NODE 87,NODE 85,Air Nodes
 Component Set,63,ZONEHVAC:AIRDISTRIBUTIONUNIT,ADU AIR TERMINAL SINGLE DUCT VAV REHEAT 16,AIRTERMINAL:SINGLEDUCT:VAV:REHEAT,AIR TERMINAL SINGLE DUCT VAV REHEAT 16,NODE 177,NODE 171,Air Nodes
 Component Set,64,ZONEHVAC:AIRDISTRIBUTIONUNIT,ADU AIR TERMINAL SINGLE DUCT VAV REHEAT 3,AIRTERMINAL:SINGLEDUCT:VAV:REHEAT,AIR TERMINAL SINGLE DUCT VAV REHEAT 3,NODE 64,NODE 62,Air Nodes
 Component Set,65,ZONEHVAC:AIRDISTRIBUTIONUNIT,ADU AIR TERMINAL SINGLE DUCT VAV REHEAT 2,AIRTERMINAL:SINGLEDUCT:VAV:REHEAT,AIR TERMINAL SINGLE DUCT VAV REHEAT 2,NODE 61,NODE 59,Air Nodes
 Component Set,66,ZONEHVAC:AIRDISTRIBUTIONUNIT,ADU AIR TERMINAL SINGLE DUCT VAV REHEAT 1,AIRTERMINAL:SINGLEDUCT:VAV:REHEAT,AIR TERMINAL SINGLE DUCT VAV REHEAT 1,NODE 58,NODE 50,Air Nodes
 Component Set,67,ZONEHVAC:AIRDISTRIBUTIONUNIT,ADU AIR TERMINAL SINGLE DUCT VAV REHEAT 5,AIRTERMINAL:SINGLEDUCT:VAV:REHEAT,AIR TERMINAL SINGLE DUCT VAV REHEAT 5,NODE 70,NODE 68,Air Nodes
 Component Set,68,ZONEHVAC:AIRDISTRIBUTIONUNIT,ADU AIR TERMINAL SINGLE DUCT VAV REHEAT 9,AIRTERMINAL:SINGLEDUCT:VAV:REHEAT,AIR TERMINAL SINGLE DUCT VAV REHEAT 9,NODE 93,NODE 91,Air Nodes
 Component Set,69,ZONEHVAC:AIRDISTRIBUTIONUNIT,ADU AIR TERMINAL SINGLE DUCT VAV REHEAT 6,AIRTERMINAL:SINGLEDUCT:VAV:REHEAT,AIR TERMINAL SINGLE DUCT VAV REHEAT 6,NODE 84,NODE 75,Air Nodes
 Component Set,70,ZONEHVAC:AIRDISTRIBUTIONUNIT,ADU AIR TERMINAL SINGLE DUCT VAV REHEAT 8,AIRTERMINAL:SINGLEDUCT:VAV:REHEAT,AIR TERMINAL SINGLE DUCT VAV REHEAT 8,NODE 90,NODE 88,Air Nodes
 Component Set,71,ZONEHVAC:AIRDISTRIBUTIONUNIT,ADU AIR TERMINAL SINGLE DUCT VAV REHEAT 10,AIRTERMINAL:SINGLEDUCT:VAV:REHEAT,AIR TERMINAL SINGLE DUCT VAV REHEAT 10,NODE 96,NODE 94,Air Nodes
 Component Set,72,ZONEHVAC:AIRDISTRIBUTIONUNIT,ADU AIR TERMINAL SINGLE DUCT VAV REHEAT 12,AIRTERMINAL:SINGLEDUCT:VAV:REHEAT,AIR TERMINAL SINGLE DUCT VAV REHEAT 12,NODE 113,NODE 111,Air Nodes
 Component Set,73,ZONEHVAC:AIRDISTRIBUTIONUNIT,ADU AIR TERMINAL SINGLE DUCT VAV REHEAT 13,AIRTERMINAL:SINGLEDUCT:VAV:REHEAT,AIR TERMINAL SINGLE DUCT VAV REHEAT 13,NODE 116,NODE 114,Air Nodes
 Component Set,74,ZONEHVAC:AIRDISTRIBUTIONUNIT,ADU AIR TERMINAL SINGLE DUCT VAV REHEAT 11,AIRTERMINAL:SINGLEDUCT:VAV:REHEAT,AIR TERMINAL SINGLE DUCT VAV REHEAT 11,NODE 110,NODE 101,Air Nodes
 Component Set,75,ZONEHVAC:AIRDISTRIBUTIONUNIT,ADU AIR TERMINAL SINGLE DUCT VAV REHEAT 14,AIRTERMINAL:SINGLEDUCT:VAV:REHEAT,AIR TERMINAL SINGLE DUCT VAV REHEAT 14,NODE 119,NODE 117,Air Nodes
 Component Set,76,AIRTERMINAL:SINGLEDUCT:VAV:REHEAT,AIR TERMINAL SINGLE DUCT VAV REHEAT 4,COIL:HEATING:ELECTRIC,COIL HEATING ELECTRIC 5,AIR TERMINAL SINGLE DUCT VAV REHEAT 4 DAMPER OUTLET,NODE 65,Air Nodes
 Component Set,77,AIRTERMINAL:SINGLEDUCT:VAV:REHEAT,AIR TERMINAL SINGLE DUCT VAV REHEAT 7,COIL:HEATING:ELECTRIC,COIL HEATING ELECTRIC 9,AIR TERMINAL SINGLE DUCT VAV REHEAT 7 DAMPER OUTLET,NODE 85,Air Nodes
 Component Set,78,AIRTERMINAL:SINGLEDUCT:VAV:REHEAT,AIR TERMINAL SINGLE DUCT VAV REHEAT 16,COIL:HEATING:ELECTRIC,COIL HEATING ELECTRIC 20,AIR TERMINAL SINGLE DUCT VAV REHEAT 16 DAMPER OUTLET,NODE 171,Air Nodes
 Component Set,79,AIRTERMINAL:SINGLEDUCT:VAV:REHEAT,AIR TERMINAL SINGLE DUCT VAV REHEAT 3,COIL:HEATING:ELECTRIC,COIL HEATING ELECTRIC 4,AIR TERMINAL SINGLE DUCT VAV REHEAT 3 DAMPER OUTLET,NODE 62,Air Nodes
 Component Set,80,AIRTERMINAL:SINGLEDUCT:VAV:REHEAT,AIR TERMINAL SINGLE DUCT VAV REHEAT 2,COIL:HEATING:ELECTRIC,COIL HEATING ELECTRIC 3,AIR TERMINAL SINGLE DUCT VAV REHEAT 2 DAMPER OUTLET,NODE 59,Air Nodes
 Component Set,81,AIRTERMINAL:SINGLEDUCT:VAV:REHEAT,AIR TERMINAL SINGLE DUCT VAV REHEAT 1,COIL:HEATING:ELECTRIC,COIL HEATING ELECTRIC 2,AIR TERMINAL SINGLE DUCT VAV REHEAT 1 DAMPER OUTLET,NODE 50,Air Nodes
 Component Set,82,AIRTERMINAL:SINGLEDUCT:VAV:REHEAT,AIR TERMINAL SINGLE DUCT VAV REHEAT 5,COIL:HEATING:ELECTRIC,COIL HEATING ELECTRIC 6,AIR TERMINAL SINGLE DUCT VAV REHEAT 5 DAMPER OUTLET,NODE 68,Air Nodes
 Component Set,83,AIRTERMINAL:SINGLEDUCT:VAV:REHEAT,AIR TERMINAL SINGLE DUCT VAV REHEAT 9,COIL:HEATING:ELECTRIC,COIL HEATING ELECTRIC 11,AIR TERMINAL SINGLE DUCT VAV REHEAT 9 DAMPER OUTLET,NODE 91,Air Nodes
 Component Set,84,AIRTERMINAL:SINGLEDUCT:VAV:REHEAT,AIR TERMINAL SINGLE DUCT VAV REHEAT 6,COIL:HEATING:ELECTRIC,COIL HEATING ELECTRIC 8,AIR TERMINAL SINGLE DUCT VAV REHEAT 6 DAMPER OUTLET,NODE 75,Air Nodes
 Component Set,85,AIRTERMINAL:SINGLEDUCT:VAV:REHEAT,AIR TERMINAL SINGLE DUCT VAV REHEAT 8,COIL:HEATING:ELECTRIC,COIL HEATING ELECTRIC 10,AIR TERMINAL SINGLE DUCT VAV REHEAT 8 DAMPER OUTLET,NODE 88,Air Nodes
 Component Set,86,AIRTERMINAL:SINGLEDUCT:VAV:REHEAT,AIR TERMINAL SINGLE DUCT VAV REHEAT 10,COIL:HEATING:ELECTRIC,COIL HEATING ELECTRIC 12,AIR TERMINAL SINGLE DUCT VAV REHEAT 10 DAMPER OUTLET,NODE 94,Air Nodes
 Component Set,87,AIRTERMINAL:SINGLEDUCT:VAV:REHEAT,AIR TERMINAL SINGLE DUCT VAV REHEAT 12,COIL:HEATING:ELECTRIC,COIL HEATING ELECTRIC 15,AIR TERMINAL SINGLE DUCT VAV REHEAT 12 DAMPER OUTLET,NODE 111,Air Nodes
 Component Set,88,AIRTERMINAL:SINGLEDUCT:VAV:REHEAT,AIR TERMINAL SINGLE DUCT VAV REHEAT 13,COIL:HEATING:ELECTRIC,COIL HEATING ELECTRIC 16,AIR TERMINAL SINGLE DUCT VAV REHEAT 13 DAMPER OUTLET,NODE 114,Air Nodes
 Component Set,89,AIRTERMINAL:SINGLEDUCT:VAV:REHEAT,AIR TERMINAL SINGLE DUCT VAV REHEAT 11,COIL:HEATING:ELECTRIC,COIL HEATING ELECTRIC 14,AIR TERMINAL SINGLE DUCT VAV REHEAT 11 DAMPER OUTLET,NODE 101,Air Nodes
 Component Set,90,AIRTERMINAL:SINGLEDUCT:VAV:REHEAT,AIR TERMINAL SINGLE DUCT VAV REHEAT 14,COIL:HEATING:ELECTRIC,COIL HEATING ELECTRIC 17,AIR TERMINAL SINGLE DUCT VAV REHEAT 14 DAMPER OUTLET,NODE 117,Air Nodes
 Component Set,91,AIRLOOPHVAC:OUTDOORAIRSYSTEM,AIR LOOP HVAC OUTDOOR AIR SYSTEM 1,OUTDOORAIR:MIXER,AIR LOOP HVAC OUTDOOR AIR SYSTEM 1 OUTDOOR AIR MIXER,NODE 52,NODE 56,Air Nodes
 Component Set,92,AIRLOOPHVAC:OUTDOORAIRSYSTEM,AIR LOOP HVAC OUTDOOR AIR SYSTEM 2,OUTDOORAIR:MIXER,AIR LOOP HVAC OUTDOOR AIR SYSTEM 2 OUTDOOR AIR MIXER,NODE 78,NODE 82,Air Nodes
 Component Set,93,AIRLOOPHVAC:OUTDOORAIRSYSTEM,AIR LOOP HVAC OUTDOOR AIR SYSTEM 3,OUTDOORAIR:MIXER,AIR LOOP HVAC OUTDOOR AIR SYSTEM 3 OUTDOOR AIR MIXER,NODE 104,NODE 108,Air Nodes
 Component Set,94,AIRLOOPHVAC:OUTDOORAIRSYSTEM,AIR LOOP HVAC OUTDOOR AIR SYSTEM 4,OUTDOORAIR:MIXER,AIR LOOP HVAC OUTDOOR AIR SYSTEM 4 OUTDOOR AIR MIXER,NODE 172,NODE 174,Air Nodes
! ===============================================================
! <# Plant Loops>,<Number of Plant Loops>
 #Plant Loops,3
! <Plant Loop>,<Plant Loop Name>,<Loop Type>,<Inlet Node Name>,<Outlet Node Name>,<Branch List>,<Connector List>
! <Plant Loop Connector>,<Connector Type>,<Connector Name>,<Loop Name>,<Loop Type>,<Number of Inlets/Outlets>
! <Plant Loop Connector Branches>,<Connector Node Count>,<Connector Type>,<Connector Name>,<Inlet Branch>,<Outlet Branch>,<Loop Name>,<Loop Type>
! <Plant Loop Connector Nodes>,<Connector Node Count>,<Connector Type>,<Connector Name>,<Inlet Node>,<Outlet Node>,<Loop Name>,<Loop Type>
! <Plant Loop Supply Connection>,<Plant Loop Name>,<Supply Side Outlet Node Name>,<Demand Side Inlet Node Name>
! <Plant Loop Return Connection>,<Plant Loop Name>,<Demand Side Outlet Node Name>,<Supply Side Inlet Node Name>
 Plant Loop,CHILLED WATER LOOP,Demand,NODE 22,NODE 23,CHILLED WATER LOOP DEMAND BRANCHES,CHILLED WATER LOOP DEMAND CONNECTOR LIST
   Plant Loop Connector,Splitter,CHILLED WATER LOOP DEMAND SPLITTER,CHILLED WATER LOOP,Demand,5
     Plant Loop Connector Branches,1,Splitter,CHILLED WATER LOOP DEMAND SPLITTER,CHILLED WATER LOOP DEMAND INLET BRANCH,CHILLED WATER LOOP DEMAND BRANCH 1,CHILLED WATER LOOP,Demand
     Plant Loop Connector Nodes,   1,Splitter,CHILLED WATER LOOP DEMAND SPLITTER,CHILLED WATER LOOP DEMAND INLET PIPE NODE,NODE 24,CHILLED WATER LOOP,Demand
     Plant Loop Connector Branches,2,Splitter,CHILLED WATER LOOP DEMAND SPLITTER,CHILLED WATER LOOP DEMAND INLET BRANCH,CHILLED WATER LOOP DEMAND BRANCH 2,CHILLED WATER LOOP,Demand
     Plant Loop Connector Nodes,   2,Splitter,CHILLED WATER LOOP DEMAND SPLITTER,CHILLED WATER LOOP DEMAND INLET PIPE NODE,NODE 76,CHILLED WATER LOOP,Demand
     Plant Loop Connector Branches,3,Splitter,CHILLED WATER LOOP DEMAND SPLITTER,CHILLED WATER LOOP DEMAND INLET BRANCH,CHILLED WATER LOOP DEMAND BRANCH 3,CHILLED WATER LOOP,Demand
     Plant Loop Connector Nodes,   3,Splitter,CHILLED WATER LOOP DEMAND SPLITTER,CHILLED WATER LOOP DEMAND INLET PIPE NODE,NODE 102,CHILLED WATER LOOP,Demand
     Plant Loop Connector Branches,4,Splitter,CHILLED WATER LOOP DEMAND SPLITTER,CHILLED WATER LOOP DEMAND INLET BRANCH,CHILLED WATER LOOP DEMAND BRANCH 4,CHILLED WATER LOOP,Demand
     Plant Loop Connector Nodes,   4,Splitter,CHILLED WATER LOOP DEMAND SPLITTER,CHILLED WATER LOOP DEMAND INLET PIPE NODE,NODE 178,CHILLED WATER LOOP,Demand
     Plant Loop Connector Branches,5,Splitter,CHILLED WATER LOOP DEMAND SPLITTER,CHILLED WATER LOOP DEMAND INLET BRANCH,CHILLED WATER LOOP DEMAND BYPASS BRANCH,CHILLED WATER LOOP,Demand
     Plant Loop Connector Nodes,   5,Splitter,CHILLED WATER LOOP DEMAND SPLITTER,CHILLED WATER LOOP DEMAND INLET PIPE NODE,CHILLED WATER LOOP DEMAND BYPASS PIPE INLET NODE,CHILLED WATER LOOP,Demand
   Plant Loop Connector,Mixer,CHILLED WATER LOOP DEMAND MIXER,CHILLED WATER LOOP,Demand,5
     Plant Loop Connector Branches,1,Mixer,CHILLED WATER LOOP DEMAND MIXER,CHILLED WATER LOOP DEMAND BRANCH 1,CHILLED WATER LOOP DEMAND OUTLET BRANCH,CHILLED WATER LOOP,Demand
     Plant Loop Connector Nodes,   1,Mixer,CHILLED WATER LOOP DEMAND MIXER,NODE 51,CHILLED WATER LOOP DEMAND OUTLET PIPE NODE,CHILLED WATER LOOP,Demand
     Plant Loop Connector Branches,2,Mixer,CHILLED WATER LOOP DEMAND MIXER,CHILLED WATER LOOP DEMAND BRANCH 2,CHILLED WATER LOOP DEMAND OUTLET BRANCH,CHILLED WATER LOOP,Demand
     Plant Loop Connector Nodes,   2,Mixer,CHILLED WATER LOOP DEMAND MIXER,NODE 77,CHILLED WATER LOOP DEMAND OUTLET PIPE NODE,CHILLED WATER LOOP,Demand
     Plant Loop Connector Branches,3,Mixer,CHILLED WATER LOOP DEMAND MIXER,CHILLED WATER LOOP DEMAND BRANCH 3,CHILLED WATER LOOP DEMAND OUTLET BRANCH,CHILLED WATER LOOP,Demand
     Plant Loop Connector Nodes,   3,Mixer,CHILLED WATER LOOP DEMAND MIXER,NODE 103,CHILLED WATER LOOP DEMAND OUTLET PIPE NODE,CHILLED WATER LOOP,Demand
     Plant Loop Connector Branches,4,Mixer,CHILLED WATER LOOP DEMAND MIXER,CHILLED WATER LOOP DEMAND BRANCH 4,CHILLED WATER LOOP DEMAND OUTLET BRANCH,CHILLED WATER LOOP,Demand
     Plant Loop Connector Nodes,   4,Mixer,CHILLED WATER LOOP DEMAND MIXER,NODE 179,CHILLED WATER LOOP DEMAND OUTLET PIPE NODE,CHILLED WATER LOOP,Demand
     Plant Loop Connector Branches,5,Mixer,CHILLED WATER LOOP DEMAND MIXER,CHILLED WATER LOOP DEMAND BYPASS BRANCH,CHILLED WATER LOOP DEMAND OUTLET BRANCH,CHILLED WATER LOOP,Demand
     Plant Loop Connector Nodes,   5,Mixer,CHILLED WATER LOOP DEMAND MIXER,CHILLED WATER LOOP DEMAND BYPASS PIPE OUTLET NODE,CHILLED WATER LOOP DEMAND OUTLET PIPE NODE,CHILLED WATER LOOP,Demand
 Plant Loop,CHILLED WATER LOOP,Supply,NODE 19,NODE 20,CHILLED WATER LOOP SUPPLY BRANCHES,CHILLED WATER LOOP SUPPLY CONNECTOR LIST
   Plant Loop Connector,Splitter,CHILLED WATER LOOP SUPPLY SPLITTER,CHILLED WATER LOOP,Supply,3
     Plant Loop Connector Branches,1,Splitter,CHILLED WATER LOOP SUPPLY SPLITTER,CHILLED WATER LOOP SUPPLY INLET BRANCH,CHILLED WATER LOOP SUPPLY BRANCH 1,CHILLED WATER LOOP,Supply
     Plant Loop Connector Nodes,   1,Splitter,CHILLED WATER LOOP SUPPLY SPLITTER,NODE 25,NODE 21,CHILLED WATER LOOP,Supply
     Plant Loop Connector Branches,2,Splitter,CHILLED WATER LOOP SUPPLY SPLITTER,CHILLED WATER LOOP SUPPLY INLET BRANCH,CHILLED WATER LOOP SUPPLY BRANCH 2,CHILLED WATER LOOP,Supply
     Plant Loop Connector Nodes,   2,Splitter,CHILLED WATER LOOP SUPPLY SPLITTER,NODE 25,NODE 27,CHILLED WATER LOOP,Supply
     Plant Loop Connector Branches,3,Splitter,CHILLED WATER LOOP SUPPLY SPLITTER,CHILLED WATER LOOP SUPPLY INLET BRANCH,CHILLED WATER LOOP SUPPLY BRANCH 3,CHILLED WATER LOOP,Supply
     Plant Loop Connector Nodes,   3,Splitter,CHILLED WATER LOOP SUPPLY SPLITTER,NODE 25,NODE 29,CHILLED WATER LOOP,Supply
   Plant Loop Connector,Mixer,CHILLED WATER LOOP SUPPLY MIXER,CHILLED WATER LOOP,Supply,3
     Plant Loop Connector Branches,1,Mixer,CHILLED WATER LOOP SUPPLY MIXER,CHILLED WATER LOOP SUPPLY BRANCH 1,CHILLED WATER LOOP SUPPLY OUTLET BRANCH,CHILLED WATER LOOP,Supply
     Plant Loop Connector Nodes,   1,Mixer,CHILLED WATER LOOP SUPPLY MIXER,NODE 26,NODE 31,CHILLED WATER LOOP,Supply
     Plant Loop Connector Branches,2,Mixer,CHILLED WATER LOOP SUPPLY MIXER,CHILLED WATER LOOP SUPPLY BRANCH 2,CHILLED WATER LOOP SUPPLY OUTLET BRANCH,CHILLED WATER LOOP,Supply
     Plant Loop Connector Nodes,   2,Mixer,CHILLED WATER LOOP SUPPLY MIXER,NODE 28,NODE 31,CHILLED WATER LOOP,Supply
     Plant Loop Connector Branches,3,Mixer,CHILLED WATER LOOP SUPPLY MIXER,CHILLED WATER LOOP SUPPLY BRANCH 3,CHILLED WATER LOOP SUPPLY OUTLET BRANCH,CHILLED WATER LOOP,Supply
     Plant Loop Connector Nodes,   3,Mixer,CHILLED WATER LOOP SUPPLY MIXER,NODE 30,NODE 31,CHILLED WATER LOOP,Supply
 Plant Loop Supply Connection,CHILLED WATER LOOP,NODE 20,NODE 22
 Plant Loop Return Connection,CHILLED WATER LOOP,NODE 23,NODE 19
 Plant Loop,CONDENSER WATER LOOP,Demand,NODE 35,NODE 36,CONDENSER WATER LOOP DEMAND BRANCHES,CONDENSER WATER LOOP DEMAND CONNECTOR LIST
   Plant Loop Connector,Splitter,CONDENSER WATER LOOP DEMAND SPLITTER,CONDENSER WATER LOOP,Demand,3
     Plant Loop Connector Branches,1,Splitter,CONDENSER WATER LOOP DEMAND SPLITTER,CONDENSER WATER LOOP DEMAND INLET BRANCH,CONDENSER WATER LOOP DEMAND BRANCH 1,CONDENSER WATER LOOP,Demand
     Plant Loop Connector Nodes,   1,Splitter,CONDENSER WATER LOOP DEMAND SPLITTER,CONDENSER WATER LOOP DEMAND INLET PIPE NODE,NODE 37,CONDENSER WATER LOOP,Demand
     Plant Loop Connector Branches,2,Splitter,CONDENSER WATER LOOP DEMAND SPLITTER,CONDENSER WATER LOOP DEMAND INLET BRANCH,CONDENSER WATER LOOP DEMAND BRANCH 2,CONDENSER WATER LOOP,Demand
     Plant Loop Connector Nodes,   2,Splitter,CONDENSER WATER LOOP DEMAND SPLITTER,CONDENSER WATER LOOP DEMAND INLET PIPE NODE,NODE 44,CONDENSER WATER LOOP,Demand
     Plant Loop Connector Branches,3,Splitter,CONDENSER WATER LOOP DEMAND SPLITTER,CONDENSER WATER LOOP DEMAND INLET BRANCH,CONDENSER WATER LOOP DEMAND BYPASS BRANCH,CONDENSER WATER LOOP,Demand
     Plant Loop Connector Nodes,   3,Splitter,CONDENSER WATER LOOP DEMAND SPLITTER,CONDENSER WATER LOOP DEMAND INLET PIPE NODE,CONDENSER WATER LOOP DEMAND BYPASS PIPE INLET NODE,CONDENSER WATER LOOP,Demand
   Plant Loop Connector,Mixer,CONDENSER WATER LOOP DEMAND MIXER,CONDENSER WATER LOOP,Demand,3
     Plant Loop Connector Branches,1,Mixer,CONDENSER WATER LOOP DEMAND MIXER,CONDENSER WATER LOOP DEMAND BRANCH 1,CONDENSER WATER LOOP DEMAND OUTLET BRANCH,CONDENSER WATER LOOP,Demand
     Plant Loop Connector Nodes,   1,Mixer,CONDENSER WATER LOOP DEMAND MIXER,NODE 43,CONDENSER WATER LOOP DEMAND OUTLET PIPE NODE,CONDENSER WATER LOOP,Demand
     Plant Loop Connector Branches,2,Mixer,CONDENSER WATER LOOP DEMAND MIXER,CONDENSER WATER LOOP DEMAND BRANCH 2,CONDENSER WATER LOOP DEMAND OUTLET BRANCH,CONDENSER WATER LOOP,Demand
     Plant Loop Connector Nodes,   2,Mixer,CONDENSER WATER LOOP DEMAND MIXER,NODE 45,CONDENSER WATER LOOP DEMAND OUTLET PIPE NODE,CONDENSER WATER LOOP,Demand
     Plant Loop Connector Branches,3,Mixer,CONDENSER WATER LOOP DEMAND MIXER,CONDENSER WATER LOOP DEMAND BYPASS BRANCH,CONDENSER WATER LOOP DEMAND OUTLET BRANCH,CONDENSER WATER LOOP,Demand
     Plant Loop Connector Nodes,   3,Mixer,CONDENSER WATER LOOP DEMAND MIXER,CONDENSER WATER LOOP DEMAND BYPASS PIPE OUTLET NODE,CONDENSER WATER LOOP DEMAND OUTLET PIPE NODE,CONDENSER WATER LOOP,Demand
 Plant Loop,CONDENSER WATER LOOP,Supply,NODE 32,NODE 33,CONDENSER WATER LOOP SUPPLY BRANCHES,CONDENSER WATER LOOP SUPPLY CONNECTOR LIST
   Plant Loop Connector,Splitter,CONDENSER WATER LOOP SUPPLY SPLITTER,CONDENSER WATER LOOP,Supply,2
     Plant Loop Connector Branches,1,Splitter,CONDENSER WATER LOOP SUPPLY SPLITTER,CONDENSER WATER LOOP SUPPLY INLET BRANCH,CONDENSER WATER LOOP SUPPLY BRANCH 1,CONDENSER WATER LOOP,Supply
     Plant Loop Connector Nodes,   1,Splitter,CONDENSER WATER LOOP SUPPLY SPLITTER,NODE 38,NODE 34,CONDENSER WATER LOOP,Supply
     Plant Loop Connector Branches,2,Splitter,CONDENSER WATER LOOP SUPPLY SPLITTER,CONDENSER WATER LOOP SUPPLY INLET BRANCH,CONDENSER WATER LOOP SUPPLY BRANCH 2,CONDENSER WATER LOOP,Supply
     Plant Loop Connector Nodes,   2,Splitter,CONDENSER WATER LOOP SUPPLY SPLITTER,NODE 38,NODE 40,CONDENSER WATER LOOP,Supply
   Plant Loop Connector,Mixer,CONDENSER WATER LOOP SUPPLY MIXER,CONDENSER WATER LOOP,Supply,2
     Plant Loop Connector Branches,1,Mixer,CONDENSER WATER LOOP SUPPLY MIXER,CONDENSER WATER LOOP SUPPLY BRANCH 1,CONDENSER WATER LOOP SUPPLY OUTLET BRANCH,CONDENSER WATER LOOP,Supply
     Plant Loop Connector Nodes,   1,Mixer,CONDENSER WATER LOOP SUPPLY MIXER,NODE 39,NODE 42,CONDENSER WATER LOOP,Supply
     Plant Loop Connector Branches,2,Mixer,CONDENSER WATER LOOP SUPPLY MIXER,CONDENSER WATER LOOP SUPPLY BRANCH 2,CONDENSER WATER LOOP SUPPLY OUTLET BRANCH,CONDENSER WATER LOOP,Supply
     Plant Loop Connector Nodes,   2,Mixer,CONDENSER WATER LOOP SUPPLY MIXER,NODE 41,NODE 42,CONDENSER WATER LOOP,Supply
 Plant Loop Supply Connection,CONDENSER WATER LOOP,NODE 33,NODE 35
 Plant Loop Return Connection,CONDENSER WATER LOOP,NODE 36,NODE 32
 Plant Loop,MAIN SERVICE WATER LOOP,Demand,NODE 126,NODE 127,MAIN SERVICE WATER LOOP DEMAND BRANCHES,MAIN SERVICE WATER LOOP DEMAND CONNECTOR LIST
   Plant Loop Connector,Splitter,MAIN SERVICE WATER LOOP DEMAND SPLITTER,MAIN SERVICE WATER LOOP,Demand,17
     Plant Loop Connector Branches,1,Splitter,MAIN SERVICE WATER LOOP DEMAND SPLITTER,MAIN SERVICE WATER LOOP DEMAND INLET BRANCH,MAIN SERVICE WATER LOOP DEMAND BRANCH 1,MAIN SERVICE WATER LOOP,Demand
     Plant Loop Connector Nodes,   1,Splitter,MAIN SERVICE WATER LOOP DEMAND SPLITTER,NODE 135,NODE 128,MAIN SERVICE WATER LOOP,Demand
     Plant Loop Connector Branches,2,Splitter,MAIN SERVICE WATER LOOP DEMAND SPLITTER,MAIN SERVICE WATER LOOP DEMAND INLET BRANCH,MAIN SERVICE WATER LOOP DEMAND BRANCH 2,MAIN SERVICE WATER LOOP,Demand
     Plant Loop Connector Nodes,   2,Splitter,MAIN SERVICE WATER LOOP DEMAND SPLITTER,NODE 135,NODE 137,MAIN SERVICE WATER LOOP,Demand
     Plant Loop Connector Branches,3,Splitter,MAIN SERVICE WATER LOOP DEMAND SPLITTER,MAIN SERVICE WATER LOOP DEMAND INLET BRANCH,MAIN SERVICE WATER LOOP DEMAND BRANCH 3,MAIN SERVICE WATER LOOP,Demand
     Plant Loop Connector Nodes,   3,Splitter,MAIN SERVICE WATER LOOP DEMAND SPLITTER,NODE 135,NODE 139,MAIN SERVICE WATER LOOP,Demand
     Plant Loop Connector Branches,4,Splitter,MAIN SERVICE WATER LOOP DEMAND SPLITTER,MAIN SERVICE WATER LOOP DEMAND INLET BRANCH,MAIN SERVICE WATER LOOP DEMAND BRANCH 4,MAIN SERVICE WATER LOOP,Demand
     Plant Loop Connector Nodes,   4,Splitter,MAIN SERVICE WATER LOOP DEMAND SPLITTER,NODE 135,NODE 141,MAIN SERVICE WATER LOOP,Demand
     Plant Loop Connector Branches,5,Splitter,MAIN SERVICE WATER LOOP DEMAND SPLITTER,MAIN SERVICE WATER LOOP DEMAND INLET BRANCH,MAIN SERVICE WATER LOOP DEMAND BRANCH 5,MAIN SERVICE WATER LOOP,Demand
     Plant Loop Connector Nodes,   5,Splitter,MAIN SERVICE WATER LOOP DEMAND SPLITTER,NODE 135,NODE 143,MAIN SERVICE WATER LOOP,Demand
     Plant Loop Connector Branches,6,Splitter,MAIN SERVICE WATER LOOP DEMAND SPLITTER,MAIN SERVICE WATER LOOP DEMAND INLET BRANCH,MAIN SERVICE WATER LOOP DEMAND BRANCH 6,MAIN SERVICE WATER LOOP,Demand
     Plant Loop Connector Nodes,   6,Splitter,MAIN SERVICE WATER LOOP DEMAND SPLITTER,NODE 135,NODE 145,MAIN SERVICE WATER LOOP,Demand
     Plant Loop Connector Branches,7,Splitter,MAIN SERVICE WATER LOOP DEMAND SPLITTER,MAIN SERVICE WATER LOOP DEMAND INLET BRANCH,MAIN SERVICE WATER LOOP DEMAND BRANCH 7,MAIN SERVICE WATER LOOP,Demand
     Plant Loop Connector Nodes,   7,Splitter,MAIN SERVICE WATER LOOP DEMAND SPLITTER,NODE 135,NODE 147,MAIN SERVICE WATER LOOP,Demand
     Plant Loop Connector Branches,8,Splitter,MAIN SERVICE WATER LOOP DEMAND SPLITTER,MAIN SERVICE WATER LOOP DEMAND INLET BRANCH,MAIN SERVICE WATER LOOP DEMAND BRANCH 8,MAIN SERVICE WATER LOOP,Demand
     Plant Loop Connector Nodes,   8,Splitter,MAIN SERVICE WATER LOOP DEMAND SPLITTER,NODE 135,NODE 149,MAIN SERVICE WATER LOOP,Demand
     Plant Loop Connector Branches,9,Splitter,MAIN SERVICE WATER LOOP DEMAND SPLITTER,MAIN SERVICE WATER LOOP DEMAND INLET BRANCH,MAIN SERVICE WATER LOOP DEMAND BRANCH 9,MAIN SERVICE WATER LOOP,Demand
     Plant Loop Connector Nodes,   9,Splitter,MAIN SERVICE WATER LOOP DEMAND SPLITTER,NODE 135,NODE 151,MAIN SERVICE WATER LOOP,Demand
     Plant Loop Connector Branches,10,Splitter,MAIN SERVICE WATER LOOP DEMAND SPLITTER,MAIN SERVICE WATER LOOP DEMAND INLET BRANCH,MAIN SERVICE WATER LOOP DEMAND BRANCH 10,MAIN SERVICE WATER LOOP,Demand
     Plant Loop Connector Nodes,   10,Splitter,MAIN SERVICE WATER LOOP DEMAND SPLITTER,NODE 135,NODE 153,MAIN SERVICE WATER LOOP,Demand
     Plant Loop Connector Branches,11,Splitter,MAIN SERVICE WATER LOOP DEMAND SPLITTER,MAIN SERVICE WATER LOOP DEMAND INLET BRANCH,MAIN SERVICE WATER LOOP DEMAND BRANCH 11,MAIN SERVICE WATER LOOP,Demand
     Plant Loop Connector Nodes,   11,Splitter,MAIN SERVICE WATER LOOP DEMAND SPLITTER,NODE 135,NODE 155,MAIN SERVICE WATER LOOP,Demand
     Plant Loop Connector Branches,12,Splitter,MAIN SERVICE WATER LOOP DEMAND SPLITTER,MAIN SERVICE WATER LOOP DEMAND INLET BRANCH,MAIN SERVICE WATER LOOP DEMAND BRANCH 12,MAIN SERVICE WATER LOOP,Demand
     Plant Loop Connector Nodes,   12,Splitter,MAIN SERVICE WATER LOOP DEMAND SPLITTER,NODE 135,NODE 157,MAIN SERVICE WATER LOOP,Demand
     Plant Loop Connector Branches,13,Splitter,MAIN SERVICE WATER LOOP DEMAND SPLITTER,MAIN SERVICE WATER LOOP DEMAND INLET BRANCH,MAIN SERVICE WATER LOOP DEMAND BRANCH 13,MAIN SERVICE WATER LOOP,Demand
     Plant Loop Connector Nodes,   13,Splitter,MAIN SERVICE WATER LOOP DEMAND SPLITTER,NODE 135,NODE 159,MAIN SERVICE WATER LOOP,Demand
     Plant Loop Connector Branches,14,Splitter,MAIN SERVICE WATER LOOP DEMAND SPLITTER,MAIN SERVICE WATER LOOP DEMAND INLET BRANCH,MAIN SERVICE WATER LOOP DEMAND BRANCH 14,MAIN SERVICE WATER LOOP,Demand
     Plant Loop Connector Nodes,   14,Splitter,MAIN SERVICE WATER LOOP DEMAND SPLITTER,NODE 135,NODE 161,MAIN SERVICE WATER LOOP,Demand
     Plant Loop Connector Branches,15,Splitter,MAIN SERVICE WATER LOOP DEMAND SPLITTER,MAIN SERVICE WATER LOOP DEMAND INLET BRANCH,MAIN SERVICE WATER LOOP DEMAND BRANCH 15,MAIN SERVICE WATER LOOP,Demand
     Plant Loop Connector Nodes,   15,Splitter,MAIN SERVICE WATER LOOP DEMAND SPLITTER,NODE 135,NODE 163,MAIN SERVICE WATER LOOP,Demand
     Plant Loop Connector Branches,16,Splitter,MAIN SERVICE WATER LOOP DEMAND SPLITTER,MAIN SERVICE WATER LOOP DEMAND INLET BRANCH,MAIN SERVICE WATER LOOP DEMAND BRANCH 16,MAIN SERVICE WATER LOOP,Demand
     Plant Loop Connector Nodes,   16,Splitter,MAIN SERVICE WATER LOOP DEMAND SPLITTER,NODE 135,NODE 165,MAIN SERVICE WATER LOOP,Demand
     Plant Loop Connector Branches,17,Splitter,MAIN SERVICE WATER LOOP DEMAND SPLITTER,MAIN SERVICE WATER LOOP DEMAND INLET BRANCH,MAIN SERVICE WATER LOOP DEMAND BYPASS BRANCH,MAIN SERVICE WATER LOOP,Demand
     Plant Loop Connector Nodes,   17,Splitter,MAIN SERVICE WATER LOOP DEMAND SPLITTER,NODE 135,MAIN SERVICE WATER LOOP DEMAND BYPASS PIPE INLET NODE,MAIN SERVICE WATER LOOP,Demand
   Plant Loop Connector,Mixer,MAIN SERVICE WATER LOOP DEMAND MIXER,MAIN SERVICE WATER LOOP,Demand,17
     Plant Loop Connector Branches,1,Mixer,MAIN SERVICE WATER LOOP DEMAND MIXER,MAIN SERVICE WATER LOOP DEMAND BRANCH 1,MAIN SERVICE WATER LOOP DEMAND OUTLET BRANCH,MAIN SERVICE WATER LOOP,Demand
     Plant Loop Connector Nodes,   1,Mixer,MAIN SERVICE WATER LOOP DEMAND MIXER,NODE 133,NODE 136,MAIN SERVICE WATER LOOP,Demand
     Plant Loop Connector Branches,2,Mixer,MAIN SERVICE WATER LOOP DEMAND MIXER,MAIN SERVICE WATER LOOP DEMAND BRANCH 2,MAIN SERVICE WATER LOOP DEMAND OUTLET BRANCH,MAIN SERVICE WATER LOOP,Demand
     Plant Loop Connector Nodes,   2,Mixer,MAIN SERVICE WATER LOOP DEMAND MIXER,NODE 138,NODE 136,MAIN SERVICE WATER LOOP,Demand
     Plant Loop Connector Branches,3,Mixer,MAIN SERVICE WATER LOOP DEMAND MIXER,MAIN SERVICE WATER LOOP DEMAND BRANCH 3,MAIN SERVICE WATER LOOP DEMAND OUTLET BRANCH,MAIN SERVICE WATER LOOP,Demand
     Plant Loop Connector Nodes,   3,Mixer,MAIN SERVICE WATER LOOP DEMAND MIXER,NODE 140,NODE 136,MAIN SERVICE WATER LOOP,Demand
     Plant Loop Connector Branches,4,Mixer,MAIN SERVICE WATER LOOP DEMAND MIXER,MAIN SERVICE WATER LOOP DEMAND BRANCH 4,MAIN SERVICE WATER LOOP DEMAND OUTLET BRANCH,MAIN SERVICE WATER LOOP,Demand
     Plant Loop Connector Nodes,   4,Mixer,MAIN SERVICE WATER LOOP DEMAND MIXER,NODE 142,NODE 136,MAIN SERVICE WATER LOOP,Demand
     Plant Loop Connector Branches,5,Mixer,MAIN SERVICE WATER LOOP DEMAND MIXER,MAIN SERVICE WATER LOOP DEMAND BRANCH 5,MAIN SERVICE WATER LOOP DEMAND OUTLET BRANCH,MAIN SERVICE WATER LOOP,Demand
     Plant Loop Connector Nodes,   5,Mixer,MAIN SERVICE WATER LOOP DEMAND MIXER,NODE 144,NODE 136,MAIN SERVICE WATER LOOP,Demand
     Plant Loop Connector Branches,6,Mixer,MAIN SERVICE WATER LOOP DEMAND MIXER,MAIN SERVICE WATER LOOP DEMAND BRANCH 6,MAIN SERVICE WATER LOOP DEMAND OUTLET BRANCH,MAIN SERVICE WATER LOOP,Demand
     Plant Loop Connector Nodes,   6,Mixer,MAIN SERVICE WATER LOOP DEMAND MIXER,NODE 146,NODE 136,MAIN SERVICE WATER LOOP,Demand
     Plant Loop Connector Branches,7,Mixer,MAIN SERVICE WATER LOOP DEMAND MIXER,MAIN SERVICE WATER LOOP DEMAND BRANCH 7,MAIN SERVICE WATER LOOP DEMAND OUTLET BRANCH,MAIN SERVICE WATER LOOP,Demand
     Plant Loop Connector Nodes,   7,Mixer,MAIN SERVICE WATER LOOP DEMAND MIXER,NODE 148,NODE 136,MAIN SERVICE WATER LOOP,Demand
     Plant Loop Connector Branches,8,Mixer,MAIN SERVICE WATER LOOP DEMAND MIXER,MAIN SERVICE WATER LOOP DEMAND BRANCH 8,MAIN SERVICE WATER LOOP DEMAND OUTLET BRANCH,MAIN SERVICE WATER LOOP,Demand
     Plant Loop Connector Nodes,   8,Mixer,MAIN SERVICE WATER LOOP DEMAND MIXER,NODE 150,NODE 136,MAIN SERVICE WATER LOOP,Demand
     Plant Loop Connector Branches,9,Mixer,MAIN SERVICE WATER LOOP DEMAND MIXER,MAIN SERVICE WATER LOOP DEMAND BRANCH 9,MAIN SERVICE WATER LOOP DEMAND OUTLET BRANCH,MAIN SERVICE WATER LOOP,Demand
     Plant Loop Connector Nodes,   9,Mixer,MAIN SERVICE WATER LOOP DEMAND MIXER,NODE 152,NODE 136,MAIN SERVICE WATER LOOP,Demand
     Plant Loop Connector Branches,10,Mixer,MAIN SERVICE WATER LOOP DEMAND MIXER,MAIN SERVICE WATER LOOP DEMAND BRANCH 10,MAIN SERVICE WATER LOOP DEMAND OUTLET BRANCH,MAIN SERVICE WATER LOOP,Demand
     Plant Loop Connector Nodes,   10,Mixer,MAIN SERVICE WATER LOOP DEMAND MIXER,NODE 154,NODE 136,MAIN SERVICE WATER LOOP,Demand
     Plant Loop Connector Branches,11,Mixer,MAIN SERVICE WATER LOOP DEMAND MIXER,MAIN SERVICE WATER LOOP DEMAND BRANCH 11,MAIN SERVICE WATER LOOP DEMAND OUTLET BRANCH,MAIN SERVICE WATER LOOP,Demand
     Plant Loop Connector Nodes,   11,Mixer,MAIN SERVICE WATER LOOP DEMAND MIXER,NODE 156,NODE 136,MAIN SERVICE WATER LOOP,Demand
     Plant Loop Connector Branches,12,Mixer,MAIN SERVICE WATER LOOP DEMAND MIXER,MAIN SERVICE WATER LOOP DEMAND BRANCH 12,MAIN SERVICE WATER LOOP DEMAND OUTLET BRANCH,MAIN SERVICE WATER LOOP,Demand
     Plant Loop Connector Nodes,   12,Mixer,MAIN SERVICE WATER LOOP DEMAND MIXER,NODE 158,NODE 136,MAIN SERVICE WATER LOOP,Demand
     Plant Loop Connector Branches,13,Mixer,MAIN SERVICE WATER LOOP DEMAND MIXER,MAIN SERVICE WATER LOOP DEMAND BRANCH 13,MAIN SERVICE WATER LOOP DEMAND OUTLET BRANCH,MAIN SERVICE WATER LOOP,Demand
     Plant Loop Connector Nodes,   13,Mixer,MAIN SERVICE WATER LOOP DEMAND MIXER,NODE 160,NODE 136,MAIN SERVICE WATER LOOP,Demand
     Plant Loop Connector Branches,14,Mixer,MAIN SERVICE WATER LOOP DEMAND MIXER,MAIN SERVICE WATER LOOP DEMAND BRANCH 14,MAIN SERVICE WATER LOOP DEMAND OUTLET BRANCH,MAIN SERVICE WATER LOOP,Demand
     Plant Loop Connector Nodes,   14,Mixer,MAIN SERVICE WATER LOOP DEMAND MIXER,NODE 162,NODE 136,MAIN SERVICE WATER LOOP,Demand
     Plant Loop Connector Branches,15,Mixer,MAIN SERVICE WATER LOOP DEMAND MIXER,MAIN SERVICE WATER LOOP DEMAND BRANCH 15,MAIN SERVICE WATER LOOP DEMAND OUTLET BRANCH,MAIN SERVICE WATER LOOP,Demand
     Plant Loop Connector Nodes,   15,Mixer,MAIN SERVICE WATER LOOP DEMAND MIXER,NODE 164,NODE 136,MAIN SERVICE WATER LOOP,Demand
     Plant Loop Connector Branches,16,Mixer,MAIN SERVICE WATER LOOP DEMAND MIXER,MAIN SERVICE WATER LOOP DEMAND BRANCH 16,MAIN SERVICE WATER LOOP DEMAND OUTLET BRANCH,MAIN SERVICE WATER LOOP,Demand
     Plant Loop Connector Nodes,   16,Mixer,MAIN SERVICE WATER LOOP DEMAND MIXER,NODE 166,NODE 136,MAIN SERVICE WATER LOOP,Demand
     Plant Loop Connector Branches,17,Mixer,MAIN SERVICE WATER LOOP DEMAND MIXER,MAIN SERVICE WATER LOOP DEMAND BYPASS BRANCH,MAIN SERVICE WATER LOOP DEMAND OUTLET BRANCH,MAIN SERVICE WATER LOOP,Demand
     Plant Loop Connector Nodes,   17,Mixer,MAIN SERVICE WATER LOOP DEMAND MIXER,MAIN SERVICE WATER LOOP DEMAND BYPASS PIPE OUTLET NODE,NODE 136,MAIN SERVICE WATER LOOP,Demand
 Plant Loop,MAIN SERVICE WATER LOOP,Supply,NODE 123,NODE 124,MAIN SERVICE WATER LOOP SUPPLY BRANCHES,MAIN SERVICE WATER LOOP SUPPLY CONNECTOR LIST
   Plant Loop Connector,Splitter,MAIN SERVICE WATER LOOP SUPPLY SPLITTER,MAIN SERVICE WATER LOOP,Supply,2
     Plant Loop Connector Branches,1,Splitter,MAIN SERVICE WATER LOOP SUPPLY SPLITTER,MAIN SERVICE WATER LOOP SUPPLY INLET BRANCH,MAIN SERVICE WATER LOOP SUPPLY BRANCH 1,MAIN SERVICE WATER LOOP,Supply
     Plant Loop Connector Nodes,   1,Splitter,MAIN SERVICE WATER LOOP SUPPLY SPLITTER,NODE 129,NODE 125,MAIN SERVICE WATER LOOP,Supply
     Plant Loop Connector Branches,2,Splitter,MAIN SERVICE WATER LOOP SUPPLY SPLITTER,MAIN SERVICE WATER LOOP SUPPLY INLET BRANCH,MAIN SERVICE WATER LOOP SUPPLY BRANCH 2,MAIN SERVICE WATER LOOP,Supply
     Plant Loop Connector Nodes,   2,Splitter,MAIN SERVICE WATER LOOP SUPPLY SPLITTER,NODE 129,NODE 131,MAIN SERVICE WATER LOOP,Supply
   Plant Loop Connector,Mixer,MAIN SERVICE WATER LOOP SUPPLY MIXER,MAIN SERVICE WATER LOOP,Supply,2
     Plant Loop Connector Branches,1,Mixer,MAIN SERVICE WATER LOOP SUPPLY MIXER,MAIN SERVICE WATER LOOP SUPPLY BRANCH 1,MAIN SERVICE WATER LOOP SUPPLY OUTLET BRANCH,MAIN SERVICE WATER LOOP,Supply
     Plant Loop Connector Nodes,   1,Mixer,MAIN SERVICE WATER LOOP SUPPLY MIXER,NODE 130,NODE 134,MAIN SERVICE WATER LOOP,Supply
     Plant Loop Connector Branches,2,Mixer,MAIN SERVICE WATER LOOP SUPPLY MIXER,MAIN SERVICE WATER LOOP SUPPLY BRANCH 2,MAIN SERVICE WATER LOOP SUPPLY OUTLET BRANCH,MAIN SERVICE WATER LOOP,Supply
     Plant Loop Connector Nodes,   2,Mixer,MAIN SERVICE WATER LOOP SUPPLY MIXER,NODE 132,NODE 134,MAIN SERVICE WATER LOOP,Supply
 Plant Loop Supply Connection,MAIN SERVICE WATER LOOP,NODE 124,NODE 126
 Plant Loop Return Connection,MAIN SERVICE WATER LOOP,NODE 127,NODE 123
! ===============================================================
! <# Condenser Loops>,<Number of Condenser Loops>
 #Condenser Loops,0
! <Condenser Loop>,<Condenser Loop Name>,<Loop Type>,<Inlet Node Name>,<Outlet Node Name>,<Branch List>,<Connector List>
! <Condenser Loop Connector>,<Connector Type>,<Connector Name>,<Loop Name>,<Loop Type>,<Number of Inlets/Outlets>
! <Condenser Loop Connector Branches>,<Connector Node Count>,<Connector Type>,<Connector Name>,<Inlet Branch>,<Outlet Branch>,<Loop Name>,<Loop Type>
! <Condenser Loop Connector Nodes>,<Connector Node Count>,<Connector Type>,<Connector Name>,<Inlet Node>,<Outlet Node>,<Loop Name>,<Loop Type>
! <Condenser Loop Supply Connection>,<Condenser Loop Name>,<Supply Side Outlet Node Name>,<Demand Side Inlet Node Name>
! <Condenser Loop Return Connection>,<Condenser Loop Name>,<Demand Side Outlet Node Name>,<Supply Side Inlet Node Name>
! ===============================================================
! <# Controlled Zones>,<Number of Controlled Zones>
 #Controlled Zones,15
! <Controlled Zone>,<Controlled Zone Name>,<Equip List Name>,<Control List Name>,<Zone Node Name>,<# Inlet Nodes>,<# Exhaust Nodes>,<# Return Nodes>
! <Controlled Zone Inlet>,<Inlet Node Count>,<Controlled Zone Name>,<Supply Air Inlet Node Name>,<SD Sys:Cooling/Heating [DD:Cooling] Inlet Node Name>,<DD Sys:Heating Inlet Node Name>
! <Controlled Zone Exhaust>,<Exhaust Node Count>,<Controlled Zone Name>,<Exhaust Air Node Name>
 Controlled Zone,SP-CORE_BOTTOM SYS-6 FLR-2 SCH-A HPLCMT-CORE ZN,SP-CORE_BOTTOM SYS-6 FLR-2 SCH-A HPLCMT-CORE ZN EQUIPMENT LIST,,NODE 13,1,0,1
   Controlled Zone Inlet,1,SP-CORE_BOTTOM SYS-6 FLR-2 SCH-A HPLCMT-CORE ZN,NODE 65,NODE 67,N/A
   Controlled Zone Return,1,SP-CORE_BOTTOM SYS-6 FLR-2 SCH-A HPLCMT-CORE ZN,NODE 66
 Controlled Zone,SP-CORE_MID SYS-6 FLR-3 SCH-A HPLCMT-CORE ZN,SP-CORE_MID SYS-6 FLR-3 SCH-A HPLCMT-CORE ZN EQUIPMENT LIST,,NODE 18,1,0,1
   Controlled Zone Inlet,1,SP-CORE_MID SYS-6 FLR-3 SCH-A HPLCMT-CORE ZN,NODE 85,NODE 87,N/A
   Controlled Zone Return,1,SP-CORE_MID SYS-6 FLR-3 SCH-A HPLCMT-CORE ZN,NODE 86
 Controlled Zone,SP-CORE_TOP SYS-6 FLR-1 SCH-A HPLCMT-CORE ZN,SP-CORE_TOP SYS-6 FLR-1 SCH-A HPLCMT-CORE ZN EQUIPMENT LIST,,NODE 8,2,1,1
   Controlled Zone Inlet,1,SP-CORE_TOP SYS-6 FLR-1 SCH-A HPLCMT-CORE ZN,NODE 171,NODE 177,N/A
   Controlled Zone Inlet,2,SP-CORE_TOP SYS-6 FLR-1 SCH-A HPLCMT-CORE ZN,NODE 122,Undefined,N/A
   Controlled Zone Exhaust,1,SP-CORE_TOP SYS-6 FLR-1 SCH-A HPLCMT-CORE ZN,NODE 121
   Controlled Zone Return,1,SP-CORE_TOP SYS-6 FLR-1 SCH-A HPLCMT-CORE ZN,NODE 120
 Controlled Zone,SP-PERIMETER_BOT_ZN_1 SYS-6 FLR-2 SCH-A HPLCMT-SOUTH ZN,SP-PERIMETER_BOT_ZN_1 SYS-6 FLR-2 SCH-A HPLCMT-SOUTH ZN EQUIPMENT LIST,,NODE 12,1,0,1
   Controlled Zone Inlet,1,SP-PERIMETER_BOT_ZN_1 SYS-6 FLR-2 SCH-A HPLCMT-SOUTH ZN,NODE 62,NODE 64,N/A
   Controlled Zone Return,1,SP-PERIMETER_BOT_ZN_1 SYS-6 FLR-2 SCH-A HPLCMT-SOUTH ZN,NODE 63
 Controlled Zone,SP-PERIMETER_BOT_ZN_2 SYS-6 FLR-2 SCH-A HPLCMT-EAST ZN,SP-PERIMETER_BOT_ZN_2 SYS-6 FLR-2 SCH-A HPLCMT-EAST ZN EQUIPMENT LIST,,NODE 10,1,0,1
   Controlled Zone Inlet,1,SP-PERIMETER_BOT_ZN_2 SYS-6 FLR-2 SCH-A HPLCMT-EAST ZN,NODE 59,NODE 61,N/A
   Controlled Zone Return,1,SP-PERIMETER_BOT_ZN_2 SYS-6 FLR-2 SCH-A HPLCMT-EAST ZN,NODE 60
 Controlled Zone,SP-PERIMETER_BOT_ZN_3 SYS-6 FLR-2 SCH-A HPLCMT-NORTH ZN,SP-PERIMETER_BOT_ZN_3 SYS-6 FLR-2 SCH-A HPLCMT-NORTH ZN EQUIPMENT LIST,,NODE 9,1,0,1
   Controlled Zone Inlet,1,SP-PERIMETER_BOT_ZN_3 SYS-6 FLR-2 SCH-A HPLCMT-NORTH ZN,NODE 50,NODE 58,N/A
   Controlled Zone Return,1,SP-PERIMETER_BOT_ZN_3 SYS-6 FLR-2 SCH-A HPLCMT-NORTH ZN,NODE 57
 Controlled Zone,SP-PERIMETER_BOT_ZN_4 SYS-6 FLR-2 SCH-A HPLCMT-WEST ZN,SP-PERIMETER_BOT_ZN_4 SYS-6 FLR-2 SCH-A HPLCMT-WEST ZN EQUIPMENT LIST,,NODE 11,1,0,1
   Controlled Zone Inlet,1,SP-PERIMETER_BOT_ZN_4 SYS-6 FLR-2 SCH-A HPLCMT-WEST ZN,NODE 68,NODE 70,N/A
   Controlled Zone Return,1,SP-PERIMETER_BOT_ZN_4 SYS-6 FLR-2 SCH-A HPLCMT-WEST ZN,NODE 69
 Controlled Zone,SP-PERIMETER_MID_ZN_1 SYS-6 FLR-3 SCH-A HPLCMT-SOUTH ZN,SP-PERIMETER_MID_ZN_1 SYS-6 FLR-3 SCH-A HPLCMT-SOUTH ZN EQUIPMENT LIST,,NODE 17,1,0,1
   Controlled Zone Inlet,1,SP-PERIMETER_MID_ZN_1 SYS-6 FLR-3 SCH-A HPLCMT-SOUTH ZN,NODE 91,NODE 93,N/A
   Controlled Zone Return,1,SP-PERIMETER_MID_ZN_1 SYS-6 FLR-3 SCH-A HPLCMT-SOUTH ZN,NODE 92
 Controlled Zone,SP-PERIMETER_MID_ZN_2 SYS-6 FLR-3 SCH-A HPLCMT-EAST ZN,SP-PERIMETER_MID_ZN_2 SYS-6 FLR-3 SCH-A HPLCMT-EAST ZN EQUIPMENT LIST,,NODE 15,1,0,1
   Controlled Zone Inlet,1,SP-PERIMETER_MID_ZN_2 SYS-6 FLR-3 SCH-A HPLCMT-EAST ZN,NODE 75,NODE 84,N/A
   Controlled Zone Return,1,SP-PERIMETER_MID_ZN_2 SYS-6 FLR-3 SCH-A HPLCMT-EAST ZN,NODE 83
 Controlled Zone,SP-PERIMETER_MID_ZN_3 SYS-6 FLR-3 SCH-A HPLCMT-NORTH ZN,SP-PERIMETER_MID_ZN_3 SYS-6 FLR-3 SCH-A HPLCMT-NORTH ZN EQUIPMENT LIST,,NODE 14,1,0,1
   Controlled Zone Inlet,1,SP-PERIMETER_MID_ZN_3 SYS-6 FLR-3 SCH-A HPLCMT-NORTH ZN,NODE 88,NODE 90,N/A
   Controlled Zone Return,1,SP-PERIMETER_MID_ZN_3 SYS-6 FLR-3 SCH-A HPLCMT-NORTH ZN,NODE 89
 Controlled Zone,SP-PERIMETER_MID_ZN_4 SYS-6 FLR-3 SCH-A HPLCMT-WEST ZN,SP-PERIMETER_MID_ZN_4 SYS-6 FLR-3 SCH-A HPLCMT-WEST ZN EQUIPMENT LIST,,NODE 16,1,0,1
   Controlled Zone Inlet,1,SP-PERIMETER_MID_ZN_4 SYS-6 FLR-3 SCH-A HPLCMT-WEST ZN,NODE 94,NODE 96,N/A
   Controlled Zone Return,1,SP-PERIMETER_MID_ZN_4 SYS-6 FLR-3 SCH-A HPLCMT-WEST ZN,NODE 95
 Controlled Zone,SP-PERIMETER_TOP_ZN_1 SYS-6 FLR-1 SCH-A HPLCMT-SOUTH ZN,SP-PERIMETER_TOP_ZN_1 SYS-6 FLR-1 SCH-A HPLCMT-SOUTH ZN EQUIPMENT LIST,,NODE 7,1,0,1
   Controlled Zone Inlet,1,SP-PERIMETER_TOP_ZN_1 SYS-6 FLR-1 SCH-A HPLCMT-SOUTH ZN,NODE 111,NODE 113,N/A
   Controlled Zone Return,1,SP-PERIMETER_TOP_ZN_1 SYS-6 FLR-1 SCH-A HPLCMT-SOUTH ZN,NODE 112
 Controlled Zone,SP-PERIMETER_TOP_ZN_2 SYS-6 FLR-1 SCH-A HPLCMT-EAST ZN,SP-PERIMETER_TOP_ZN_2 SYS-6 FLR-1 SCH-A HPLCMT-EAST ZN EQUIPMENT LIST,,NODE 5,1,0,1
   Controlled Zone Inlet,1,SP-PERIMETER_TOP_ZN_2 SYS-6 FLR-1 SCH-A HPLCMT-EAST ZN,NODE 114,NODE 116,N/A
   Controlled Zone Return,1,SP-PERIMETER_TOP_ZN_2 SYS-6 FLR-1 SCH-A HPLCMT-EAST ZN,NODE 115
 Controlled Zone,SP-PERIMETER_TOP_ZN_3 SYS-6 FLR-1 SCH-A HPLCMT-NORTH ZN,SP-PERIMETER_TOP_ZN_3 SYS-6 FLR-1 SCH-A HPLCMT-NORTH ZN EQUIPMENT LIST,,NODE 4,1,0,1
   Controlled Zone Inlet,1,SP-PERIMETER_TOP_ZN_3 SYS-6 FLR-1 SCH-A HPLCMT-NORTH ZN,NODE 101,NODE 110,N/A
   Controlled Zone Return,1,SP-PERIMETER_TOP_ZN_3 SYS-6 FLR-1 SCH-A HPLCMT-NORTH ZN,NODE 109
 Controlled Zone,SP-PERIMETER_TOP_ZN_4 SYS-6 FLR-1 SCH-A HPLCMT-WEST ZN,SP-PERIMETER_TOP_ZN_4 SYS-6 FLR-1 SCH-A HPLCMT-WEST ZN EQUIPMENT LIST,,NODE 6,1,0,1
   Controlled Zone Inlet,1,SP-PERIMETER_TOP_ZN_4 SYS-6 FLR-1 SCH-A HPLCMT-WEST ZN,NODE 117,NODE 119,N/A
   Controlled Zone Return,1,SP-PERIMETER_TOP_ZN_4 SYS-6 FLR-1 SCH-A HPLCMT-WEST ZN,NODE 118
! ===============================================================
! <#Zone Equipment Lists>,<Number of Zone Equipment Lists>
 #Zone Equipment Lists,15
! <Zone Equipment List>,<Zone Equipment List Count>,<Zone Equipment List Name>,<Zone Name>,<Number of Components>
! <Zone Equipment Component>,<Component Count>,<Component Type>,<Component Name>,<Zone Name>,<Heating Priority>,<Cooling Priority>
 Zone Equipment List,1,SP-CORE_BOTTOM SYS-6 FLR-2 SCH-A HPLCMT-CORE ZN EQUIPMENT LIST,SP-CORE_BOTTOM SYS-6 FLR-2 SCH-A HPLCMT-CORE ZN,2
   Zone Equipment Component,1,ZONEHVAC:AIRDISTRIBUTIONUNIT,ADU AIR TERMINAL SINGLE DUCT VAV REHEAT 4,SP-CORE_BOTTOM SYS-6 FLR-2 SCH-A HPLCMT-CORE ZN,1,1
   Zone Equipment Component,2,ZONEHVAC:BASEBOARD:CONVECTIVE:ELECTRIC,ZONE HVAC BASEBOARD CONVECTIVE ELECTRIC 4,SP-CORE_BOTTOM SYS-6 FLR-2 SCH-A HPLCMT-CORE ZN,2,2
 Zone Equipment List,2,SP-CORE_MID SYS-6 FLR-3 SCH-A HPLCMT-CORE ZN EQUIPMENT LIST,SP-CORE_MID SYS-6 FLR-3 SCH-A HPLCMT-CORE ZN,2
   Zone Equipment Component,1,ZONEHVAC:AIRDISTRIBUTIONUNIT,ADU AIR TERMINAL SINGLE DUCT VAV REHEAT 7,SP-CORE_MID SYS-6 FLR-3 SCH-A HPLCMT-CORE ZN,1,1
   Zone Equipment Component,2,ZONEHVAC:BASEBOARD:CONVECTIVE:ELECTRIC,ZONE HVAC BASEBOARD CONVECTIVE ELECTRIC 7,SP-CORE_MID SYS-6 FLR-3 SCH-A HPLCMT-CORE ZN,2,2
 Zone Equipment List,3,SP-CORE_TOP SYS-6 FLR-1 SCH-A HPLCMT-CORE ZN EQUIPMENT LIST,SP-CORE_TOP SYS-6 FLR-1 SCH-A HPLCMT-CORE ZN,3
   Zone Equipment Component,1,ZONEHVAC:BASEBOARD:CONVECTIVE:ELECTRIC,ZONE HVAC BASEBOARD CONVECTIVE ELECTRIC 15,SP-CORE_TOP SYS-6 FLR-1 SCH-A HPLCMT-CORE ZN,1,1
   Zone Equipment Component,2,ZONEHVAC:AIRDISTRIBUTIONUNIT,ADU AIR TERMINAL SINGLE DUCT VAV REHEAT 16,SP-CORE_TOP SYS-6 FLR-1 SCH-A HPLCMT-CORE ZN,2,2
   Zone Equipment Component,3,ZONEHVAC:DEHUMIDIFIER:DX,ZONE HVAC DEHUMIDIFIER,SP-CORE_TOP SYS-6 FLR-1 SCH-A HPLCMT-CORE ZN,3,3
 Zone Equipment List,6,SP-PERIMETER_BOT_ZN_1 SYS-6 FLR-2 SCH-A HPLCMT-SOUTH ZN EQUIPMENT LIST,SP-PERIMETER_BOT_ZN_1 SYS-6 FLR-2 SCH-A HPLCMT-SOUTH ZN,2
   Zone Equipment Component,1,ZONEHVAC:AIRDISTRIBUTIONUNIT,ADU AIR TERMINAL SINGLE DUCT VAV REHEAT 3,SP-PERIMETER_BOT_ZN_1 SYS-6 FLR-2 SCH-A HPLCMT-SOUTH ZN,1,1
   Zone Equipment Component,2,ZONEHVAC:BASEBOARD:CONVECTIVE:ELECTRIC,ZONE HVAC BASEBOARD CONVECTIVE ELECTRIC 3,SP-PERIMETER_BOT_ZN_1 SYS-6 FLR-2 SCH-A HPLCMT-SOUTH ZN,2,2
 Zone Equipment List,7,SP-PERIMETER_BOT_ZN_2 SYS-6 FLR-2 SCH-A HPLCMT-EAST ZN EQUIPMENT LIST,SP-PERIMETER_BOT_ZN_2 SYS-6 FLR-2 SCH-A HPLCMT-EAST ZN,2
   Zone Equipment Component,1,ZONEHVAC:AIRDISTRIBUTIONUNIT,ADU AIR TERMINAL SINGLE DUCT VAV REHEAT 2,SP-PERIMETER_BOT_ZN_2 SYS-6 FLR-2 SCH-A HPLCMT-EAST ZN,1,1
   Zone Equipment Component,2,ZONEHVAC:BASEBOARD:CONVECTIVE:ELECTRIC,ZONE HVAC BASEBOARD CONVECTIVE ELECTRIC 2,SP-PERIMETER_BOT_ZN_2 SYS-6 FLR-2 SCH-A HPLCMT-EAST ZN,2,2
 Zone Equipment List,8,SP-PERIMETER_BOT_ZN_3 SYS-6 FLR-2 SCH-A HPLCMT-NORTH ZN EQUIPMENT LIST,SP-PERIMETER_BOT_ZN_3 SYS-6 FLR-2 SCH-A HPLCMT-NORTH ZN,2
   Zone Equipment Component,1,ZONEHVAC:AIRDISTRIBUTIONUNIT,ADU AIR TERMINAL SINGLE DUCT VAV REHEAT 1,SP-PERIMETER_BOT_ZN_3 SYS-6 FLR-2 SCH-A HPLCMT-NORTH ZN,1,1
   Zone Equipment Component,2,ZONEHVAC:BASEBOARD:CONVECTIVE:ELECTRIC,ZONE HVAC BASEBOARD CONVECTIVE ELECTRIC 1,SP-PERIMETER_BOT_ZN_3 SYS-6 FLR-2 SCH-A HPLCMT-NORTH ZN,2,2
 Zone Equipment List,9,SP-PERIMETER_BOT_ZN_4 SYS-6 FLR-2 SCH-A HPLCMT-WEST ZN EQUIPMENT LIST,SP-PERIMETER_BOT_ZN_4 SYS-6 FLR-2 SCH-A HPLCMT-WEST ZN,2
   Zone Equipment Component,1,ZONEHVAC:AIRDISTRIBUTIONUNIT,ADU AIR TERMINAL SINGLE DUCT VAV REHEAT 5,SP-PERIMETER_BOT_ZN_4 SYS-6 FLR-2 SCH-A HPLCMT-WEST ZN,1,1
   Zone Equipment Component,2,ZONEHVAC:BASEBOARD:CONVECTIVE:ELECTRIC,ZONE HVAC BASEBOARD CONVECTIVE ELECTRIC 5,SP-PERIMETER_BOT_ZN_4 SYS-6 FLR-2 SCH-A HPLCMT-WEST ZN,2,2
 Zone Equipment List,10,SP-PERIMETER_MID_ZN_1 SYS-6 FLR-3 SCH-A HPLCMT-SOUTH ZN EQUIPMENT LIST,SP-PERIMETER_MID_ZN_1 SYS-6 FLR-3 SCH-A HPLCMT-SOUTH ZN,2
   Zone Equipment Component,1,ZONEHVAC:AIRDISTRIBUTIONUNIT,ADU AIR TERMINAL SINGLE DUCT VAV REHEAT 9,SP-PERIMETER_MID_ZN_1 SYS-6 FLR-3 SCH-A HPLCMT-SOUTH ZN,1,1
   Zone Equipment Component,2,ZONEHVAC:BASEBOARD:CONVECTIVE:ELECTRIC,ZONE HVAC BASEBOARD CONVECTIVE ELECTRIC 9,SP-PERIMETER_MID_ZN_1 SYS-6 FLR-3 SCH-A HPLCMT-SOUTH ZN,2,2
 Zone Equipment List,11,SP-PERIMETER_MID_ZN_2 SYS-6 FLR-3 SCH-A HPLCMT-EAST ZN EQUIPMENT LIST,SP-PERIMETER_MID_ZN_2 SYS-6 FLR-3 SCH-A HPLCMT-EAST ZN,2
   Zone Equipment Component,1,ZONEHVAC:AIRDISTRIBUTIONUNIT,ADU AIR TERMINAL SINGLE DUCT VAV REHEAT 6,SP-PERIMETER_MID_ZN_2 SYS-6 FLR-3 SCH-A HPLCMT-EAST ZN,1,1
   Zone Equipment Component,2,ZONEHVAC:BASEBOARD:CONVECTIVE:ELECTRIC,ZONE HVAC BASEBOARD CONVECTIVE ELECTRIC 6,SP-PERIMETER_MID_ZN_2 SYS-6 FLR-3 SCH-A HPLCMT-EAST ZN,2,2
 Zone Equipment List,12,SP-PERIMETER_MID_ZN_3 SYS-6 FLR-3 SCH-A HPLCMT-NORTH ZN EQUIPMENT LIST,SP-PERIMETER_MID_ZN_3 SYS-6 FLR-3 SCH-A HPLCMT-NORTH ZN,2
   Zone Equipment Component,1,ZONEHVAC:AIRDISTRIBUTIONUNIT,ADU AIR TERMINAL SINGLE DUCT VAV REHEAT 8,SP-PERIMETER_MID_ZN_3 SYS-6 FLR-3 SCH-A HPLCMT-NORTH ZN,1,1
   Zone Equipment Component,2,ZONEHVAC:BASEBOARD:CONVECTIVE:ELECTRIC,ZONE HVAC BASEBOARD CONVECTIVE ELECTRIC 8,SP-PERIMETER_MID_ZN_3 SYS-6 FLR-3 SCH-A HPLCMT-NORTH ZN,2,2
 Zone Equipment List,13,SP-PERIMETER_MID_ZN_4 SYS-6 FLR-3 SCH-A HPLCMT-WEST ZN EQUIPMENT LIST,SP-PERIMETER_MID_ZN_4 SYS-6 FLR-3 SCH-A HPLCMT-WEST ZN,2
   Zone Equipment Component,1,ZONEHVAC:AIRDISTRIBUTIONUNIT,ADU AIR TERMINAL SINGLE DUCT VAV REHEAT 10,SP-PERIMETER_MID_ZN_4 SYS-6 FLR-3 SCH-A HPLCMT-WEST ZN,1,1
   Zone Equipment Component,2,ZONEHVAC:BASEBOARD:CONVECTIVE:ELECTRIC,ZONE HVAC BASEBOARD CONVECTIVE ELECTRIC 10,SP-PERIMETER_MID_ZN_4 SYS-6 FLR-3 SCH-A HPLCMT-WEST ZN,2,2
 Zone Equipment List,14,SP-PERIMETER_TOP_ZN_1 SYS-6 FLR-1 SCH-A HPLCMT-SOUTH ZN EQUIPMENT LIST,SP-PERIMETER_TOP_ZN_1 SYS-6 FLR-1 SCH-A HPLCMT-SOUTH ZN,2
   Zone Equipment Component,1,ZONEHVAC:AIRDISTRIBUTIONUNIT,ADU AIR TERMINAL SINGLE DUCT VAV REHEAT 12,SP-PERIMETER_TOP_ZN_1 SYS-6 FLR-1 SCH-A HPLCMT-SOUTH ZN,1,1
   Zone Equipment Component,2,ZONEHVAC:BASEBOARD:CONVECTIVE:ELECTRIC,ZONE HVAC BASEBOARD CONVECTIVE ELECTRIC 12,SP-PERIMETER_TOP_ZN_1 SYS-6 FLR-1 SCH-A HPLCMT-SOUTH ZN,2,2
 Zone Equipment List,15,SP-PERIMETER_TOP_ZN_2 SYS-6 FLR-1 SCH-A HPLCMT-EAST ZN EQUIPMENT LIST,SP-PERIMETER_TOP_ZN_2 SYS-6 FLR-1 SCH-A HPLCMT-EAST ZN,2
   Zone Equipment Component,1,ZONEHVAC:AIRDISTRIBUTIONUNIT,ADU AIR TERMINAL SINGLE DUCT VAV REHEAT 13,SP-PERIMETER_TOP_ZN_2 SYS-6 FLR-1 SCH-A HPLCMT-EAST ZN,1,1
   Zone Equipment Component,2,ZONEHVAC:BASEBOARD:CONVECTIVE:ELECTRIC,ZONE HVAC BASEBOARD CONVECTIVE ELECTRIC 13,SP-PERIMETER_TOP_ZN_2 SYS-6 FLR-1 SCH-A HPLCMT-EAST ZN,2,2
 Zone Equipment List,16,SP-PERIMETER_TOP_ZN_3 SYS-6 FLR-1 SCH-A HPLCMT-NORTH ZN EQUIPMENT LIST,SP-PERIMETER_TOP_ZN_3 SYS-6 FLR-1 SCH-A HPLCMT-NORTH ZN,2
   Zone Equipment Component,1,ZONEHVAC:AIRDISTRIBUTIONUNIT,ADU AIR TERMINAL SINGLE DUCT VAV REHEAT 11,SP-PERIMETER_TOP_ZN_3 SYS-6 FLR-1 SCH-A HPLCMT-NORTH ZN,1,1
[...]
 Non-Parent Node Connection,NODE 73,AIRLOOPHVAC:ZONESPLITTER,AIR LOOP HVAC ZONE SPLITTER 2,Inlet,1
 Non-Parent Node Connection,NODE 84,AIRLOOPHVAC:ZONESPLITTER,AIR LOOP HVAC ZONE SPLITTER 2,Outlet,1
 Non-Parent Node Connection,NODE 87,AIRLOOPHVAC:ZONESPLITTER,AIR LOOP HVAC ZONE SPLITTER 2,Outlet,1
 Non-Parent Node Connection,NODE 90,AIRLOOPHVAC:ZONESPLITTER,AIR LOOP HVAC ZONE SPLITTER 2,Outlet,1
 Non-Parent Node Connection,NODE 93,AIRLOOPHVAC:ZONESPLITTER,AIR LOOP HVAC ZONE SPLITTER 2,Outlet,1
 Non-Parent Node Connection,NODE 96,AIRLOOPHVAC:ZONESPLITTER,AIR LOOP HVAC ZONE SPLITTER 2,Outlet,1
 Non-Parent Node Connection,NODE 99,AIRLOOPHVAC:ZONESPLITTER,AIR LOOP HVAC ZONE SPLITTER 3,Inlet,1
 Non-Parent Node Connection,NODE 110,AIRLOOPHVAC:ZONESPLITTER,AIR LOOP HVAC ZONE SPLITTER 3,Outlet,1
 Non-Parent Node Connection,NODE 113,AIRLOOPHVAC:ZONESPLITTER,AIR LOOP HVAC ZONE SPLITTER 3,Outlet,1
 Non-Parent Node Connection,NODE 116,AIRLOOPHVAC:ZONESPLITTER,AIR LOOP HVAC ZONE SPLITTER 3,Outlet,1
 Non-Parent Node Connection,NODE 119,AIRLOOPHVAC:ZONESPLITTER,AIR LOOP HVAC ZONE SPLITTER 3,Outlet,1
 Non-Parent Node Connection,NODE 169,AIRLOOPHVAC:ZONESPLITTER,AIR LOOP HVAC ZONE SPLITTER 4,Inlet,1
 Non-Parent Node Connection,NODE 177,AIRLOOPHVAC:ZONESPLITTER,AIR LOOP HVAC ZONE SPLITTER 4,Outlet,1
 Non-Parent Node Connection,AIR TERMINAL SINGLE DUCT VAV REHEAT 4 DAMPER OUTLET,AIRTERMINAL:SINGLEDUCT:VAV:REHEAT,AIR TERMINAL SINGLE DUCT VAV REHEAT 4,Outlet,1
 Non-Parent Node Connection,NODE 67,AIRTERMINAL:SINGLEDUCT:VAV:REHEAT,AIR TERMINAL SINGLE DUCT VAV REHEAT 4,Inlet,1
 Non-Parent Node Connection,AIR TERMINAL SINGLE DUCT VAV REHEAT 7 DAMPER OUTLET,AIRTERMINAL:SINGLEDUCT:VAV:REHEAT,AIR TERMINAL SINGLE DUCT VAV REHEAT 7,Outlet,1
 Non-Parent Node Connection,NODE 87,AIRTERMINAL:SINGLEDUCT:VAV:REHEAT,AIR TERMINAL SINGLE DUCT VAV REHEAT 7,Inlet,1
 Non-Parent Node Connection,AIR TERMINAL SINGLE DUCT VAV REHEAT 16 DAMPER OUTLET,AIRTERMINAL:SINGLEDUCT:VAV:REHEAT,AIR TERMINAL SINGLE DUCT VAV REHEAT 16,Outlet,1
 Non-Parent Node Connection,NODE 177,AIRTERMINAL:SINGLEDUCT:VAV:REHEAT,AIR TERMINAL SINGLE DUCT VAV REHEAT 16,Inlet,1
 Non-Parent Node Connection,AIR TERMINAL SINGLE DUCT VAV REHEAT 3 DAMPER OUTLET,AIRTERMINAL:SINGLEDUCT:VAV:REHEAT,AIR TERMINAL SINGLE DUCT VAV REHEAT 3,Outlet,1
 Non-Parent Node Connection,NODE 64,AIRTERMINAL:SINGLEDUCT:VAV:REHEAT,AIR TERMINAL SINGLE DUCT VAV REHEAT 3,Inlet,1
 Non-Parent Node Connection,AIR TERMINAL SINGLE DUCT VAV REHEAT 2 DAMPER OUTLET,AIRTERMINAL:SINGLEDUCT:VAV:REHEAT,AIR TERMINAL SINGLE DUCT VAV REHEAT 2,Outlet,1
 Non-Parent Node Connection,NODE 61,AIRTERMINAL:SINGLEDUCT:VAV:REHEAT,AIR TERMINAL SINGLE DUCT VAV REHEAT 2,Inlet,1
 Non-Parent Node Connection,AIR TERMINAL SINGLE DUCT VAV REHEAT 1 DAMPER OUTLET,AIRTERMINAL:SINGLEDUCT:VAV:REHEAT,AIR TERMINAL SINGLE DUCT VAV REHEAT 1,Outlet,1
 Non-Parent Node Connection,NODE 58,AIRTERMINAL:SINGLEDUCT:VAV:REHEAT,AIR TERMINAL SINGLE DUCT VAV REHEAT 1,Inlet,1
 Non-Parent Node Connection,AIR TERMINAL SINGLE DUCT VAV REHEAT 5 DAMPER OUTLET,AIRTERMINAL:SINGLEDUCT:VAV:REHEAT,AIR TERMINAL SINGLE DUCT VAV REHEAT 5,Outlet,1
 Non-Parent Node Connection,NODE 70,AIRTERMINAL:SINGLEDUCT:VAV:REHEAT,AIR TERMINAL SINGLE DUCT VAV REHEAT 5,Inlet,1
 Non-Parent Node Connection,AIR TERMINAL SINGLE DUCT VAV REHEAT 9 DAMPER OUTLET,AIRTERMINAL:SINGLEDUCT:VAV:REHEAT,AIR TERMINAL SINGLE DUCT VAV REHEAT 9,Outlet,1
 Non-Parent Node Connection,NODE 93,AIRTERMINAL:SINGLEDUCT:VAV:REHEAT,AIR TERMINAL SINGLE DUCT VAV REHEAT 9,Inlet,1
 Non-Parent Node Connection,AIR TERMINAL SINGLE DUCT VAV REHEAT 6 DAMPER OUTLET,AIRTERMINAL:SINGLEDUCT:VAV:REHEAT,AIR TERMINAL SINGLE DUCT VAV REHEAT 6,Outlet,1
 Non-Parent Node Connection,NODE 84,AIRTERMINAL:SINGLEDUCT:VAV:REHEAT,AIR TERMINAL SINGLE DUCT VAV REHEAT 6,Inlet,1
 Non-Parent Node Connection,AIR TERMINAL SINGLE DUCT VAV REHEAT 8 DAMPER OUTLET,AIRTERMINAL:SINGLEDUCT:VAV:REHEAT,AIR TERMINAL SINGLE DUCT VAV REHEAT 8,Outlet,1
 Non-Parent Node Connection,NODE 90,AIRTERMINAL:SINGLEDUCT:VAV:REHEAT,AIR TERMINAL SINGLE DUCT VAV REHEAT 8,Inlet,1
 Non-Parent Node Connection,AIR TERMINAL SINGLE DUCT VAV REHEAT 10 DAMPER OUTLET,AIRTERMINAL:SINGLEDUCT:VAV:REHEAT,AIR TERMINAL SINGLE DUCT VAV REHEAT 10,Outlet,1
 Non-Parent Node Connection,NODE 96,AIRTERMINAL:SINGLEDUCT:VAV:REHEAT,AIR TERMINAL SINGLE DUCT VAV REHEAT 10,Inlet,1
 Non-Parent Node Connection,AIR TERMINAL SINGLE DUCT VAV REHEAT 12 DAMPER OUTLET,AIRTERMINAL:SINGLEDUCT:VAV:REHEAT,AIR TERMINAL SINGLE DUCT VAV REHEAT 12,Outlet,1
 Non-Parent Node Connection,NODE 113,AIRTERMINAL:SINGLEDUCT:VAV:REHEAT,AIR TERMINAL SINGLE DUCT VAV REHEAT 12,Inlet,1
 Non-Parent Node Connection,AIR TERMINAL SINGLE DUCT VAV REHEAT 13 DAMPER OUTLET,AIRTERMINAL:SINGLEDUCT:VAV:REHEAT,AIR TERMINAL SINGLE DUCT VAV REHEAT 13,Outlet,1
 Non-Parent Node Connection,NODE 116,AIRTERMINAL:SINGLEDUCT:VAV:REHEAT,AIR TERMINAL SINGLE DUCT VAV REHEAT 13,Inlet,1
 Non-Parent Node Connection,AIR TERMINAL SINGLE DUCT VAV REHEAT 11 DAMPER OUTLET,AIRTERMINAL:SINGLEDUCT:VAV:REHEAT,AIR TERMINAL SINGLE DUCT VAV REHEAT 11,Outlet,1
 Non-Parent Node Connection,NODE 110,AIRTERMINAL:SINGLEDUCT:VAV:REHEAT,AIR TERMINAL SINGLE DUCT VAV REHEAT 11,Inlet,1
 Non-Parent Node Connection,AIR TERMINAL SINGLE DUCT VAV REHEAT 14 DAMPER OUTLET,AIRTERMINAL:SINGLEDUCT:VAV:REHEAT,AIR TERMINAL SINGLE DUCT VAV REHEAT 14,Outlet,1
 Non-Parent Node Connection,NODE 119,AIRTERMINAL:SINGLEDUCT:VAV:REHEAT,AIR TERMINAL SINGLE DUCT VAV REHEAT 14,Inlet,1
 Non-Parent Node Connection,AIR TERMINAL SINGLE DUCT VAV REHEAT 4 DAMPER OUTLET,COIL:HEATING:ELECTRIC,COIL HEATING ELECTRIC 5,Inlet,1
 Non-Parent Node Connection,NODE 65,COIL:HEATING:ELECTRIC,COIL HEATING ELECTRIC 5,Outlet,1
 Non-Parent Node Connection,AIR TERMINAL SINGLE DUCT VAV REHEAT 7 DAMPER OUTLET,COIL:HEATING:ELECTRIC,COIL HEATING ELECTRIC 9,Inlet,1
 Non-Parent Node Connection,NODE 85,COIL:HEATING:ELECTRIC,COIL HEATING ELECTRIC 9,Outlet,1
 Non-Parent Node Connection,AIR TERMINAL SINGLE DUCT VAV REHEAT 16 DAMPER OUTLET,COIL:HEATING:ELECTRIC,COIL HEATING ELECTRIC 20,Inlet,1
 Non-Parent Node Connection,NODE 171,COIL:HEATING:ELECTRIC,COIL HEATING ELECTRIC 20,Outlet,1
 Non-Parent Node Connection,AIR TERMINAL SINGLE DUCT VAV REHEAT 3 DAMPER OUTLET,COIL:HEATING:ELECTRIC,COIL HEATING ELECTRIC 4,Inlet,1
 Non-Parent Node Connection,NODE 62,COIL:HEATING:ELECTRIC,COIL HEATING ELECTRIC 4,Outlet,1
 Non-Parent Node Connection,AIR TERMINAL SINGLE DUCT VAV REHEAT 2 DAMPER OUTLET,COIL:HEATING:ELECTRIC,COIL HEATING ELECTRIC 3,Inlet,1
 Non-Parent Node Connection,NODE 59,COIL:HEATING:ELECTRIC,COIL HEATING ELECTRIC 3,Outlet,1
 Non-Parent Node Connection,AIR TERMINAL SINGLE DUCT VAV REHEAT 1 DAMPER OUTLET,COIL:HEATING:ELECTRIC,COIL HEATING ELECTRIC 2,Inlet,1
 Non-Parent Node Connection,NODE 50,COIL:HEATING:ELECTRIC,COIL HEATING ELECTRIC 2,Outlet,1
 Non-Parent Node Connection,AIR TERMINAL SINGLE DUCT VAV REHEAT 5 DAMPER OUTLET,COIL:HEATING:ELECTRIC,COIL HEATING ELECTRIC 6,Inlet,1
 Non-Parent Node Connection,NODE 68,COIL:HEATING:ELECTRIC,COIL HEATING ELECTRIC 6,Outlet,1
 Non-Parent Node Connection,AIR TERMINAL SINGLE DUCT VAV REHEAT 9 DAMPER OUTLET,COIL:HEATING:ELECTRIC,COIL HEATING ELECTRIC 11,Inlet,1
 Non-Parent Node Connection,NODE 91,COIL:HEATING:ELECTRIC,COIL HEATING ELECTRIC 11,Outlet,1
 Non-Parent Node Connection,AIR TERMINAL SINGLE DUCT VAV REHEAT 6 DAMPER OUTLET,COIL:HEATING:ELECTRIC,COIL HEATING ELECTRIC 8,Inlet,1
 Non-Parent Node Connection,NODE 75,COIL:HEATING:ELECTRIC,COIL HEATING ELECTRIC 8,Outlet,1
 Non-Parent Node Connection,AIR TERMINAL SINGLE DUCT VAV REHEAT 8 DAMPER OUTLET,COIL:HEATING:ELECTRIC,COIL HEATING ELECTRIC 10,Inlet,1
 Non-Parent Node Connection,NODE 88,COIL:HEATING:ELECTRIC,COIL HEATING ELECTRIC 10,Outlet,1
 Non-Parent Node Connection,AIR TERMINAL SINGLE DUCT VAV REHEAT 10 DAMPER OUTLET,COIL:HEATING:ELECTRIC,COIL HEATING ELECTRIC 12,Inlet,1
 Non-Parent Node Connection,NODE 94,COIL:HEATING:ELECTRIC,COIL HEATING ELECTRIC 12,Outlet,1
 Non-Parent Node Connection,AIR TERMINAL SINGLE DUCT VAV REHEAT 12 DAMPER OUTLET,COIL:HEATING:ELECTRIC,COIL HEATING ELECTRIC 15,Inlet,1
 Non-Parent Node Connection,NODE 111,COIL:HEATING:ELECTRIC,COIL HEATING ELECTRIC 15,Outlet,1
 Non-Parent Node Connection,AIR TERMINAL SINGLE DUCT VAV REHEAT 13 DAMPER OUTLET,COIL:HEATING:ELECTRIC,COIL HEATING ELECTRIC 16,Inlet,1
 Non-Parent Node Connection,NODE 114,COIL:HEATING:ELECTRIC,COIL HEATING ELECTRIC 16,Outlet,1
 Non-Parent Node Connection,AIR TERMINAL SINGLE DUCT VAV REHEAT 11 DAMPER OUTLET,COIL:HEATING:ELECTRIC,COIL HEATING ELECTRIC 14,Inlet,1
 Non-Parent Node Connection,NODE 101,COIL:HEATING:ELECTRIC,COIL HEATING ELECTRIC 14,Outlet,1
 Non-Parent Node Connection,AIR TERMINAL SINGLE DUCT VAV REHEAT 14 DAMPER OUTLET,COIL:HEATING:ELECTRIC,COIL HEATING ELECTRIC 17,Inlet,1
 Non-Parent Node Connection,NODE 117,COIL:HEATING:ELECTRIC,COIL HEATING ELECTRIC 17,Outlet,1
 Non-Parent Node Connection,NODE 55,COIL:HEATING:ELECTRIC,COIL HEATING ELECTRIC 1,Inlet,1
 Non-Parent Node Connection,NODE 54,COIL:HEATING:ELECTRIC,COIL HEATING ELECTRIC 1,Outlet,1
 Non-Parent Node Connection,NODE 54,COIL:HEATING:ELECTRIC,COIL HEATING ELECTRIC 1,Sensor,1
 Non-Parent Node Connection,NODE 81,COIL:HEATING:ELECTRIC,COIL HEATING ELECTRIC 7,Inlet,1
 Non-Parent Node Connection,NODE 80,COIL:HEATING:ELECTRIC,COIL HEATING ELECTRIC 7,Outlet,1
 Non-Parent Node Connection,NODE 80,COIL:HEATING:ELECTRIC,COIL HEATING ELECTRIC 7,Sensor,1
 Non-Parent Node Connection,NODE 107,COIL:HEATING:ELECTRIC,COIL HEATING ELECTRIC 13,Inlet,1
 Non-Parent Node Connection,NODE 106,COIL:HEATING:ELECTRIC,COIL HEATING ELECTRIC 13,Outlet,1
 Non-Parent Node Connection,NODE 106,COIL:HEATING:ELECTRIC,COIL HEATING ELECTRIC 13,Sensor,1
 Non-Parent Node Connection,NODE 175,COIL:HEATING:ELECTRIC,COIL HEATING ELECTRIC 19,Inlet,1
 Non-Parent Node Connection,NODE 176,COIL:HEATING:ELECTRIC,COIL HEATING ELECTRIC 19,Outlet,1
 Non-Parent Node Connection,NODE 168,COIL:HEATING:ELECTRIC,COIL HEATING ELECTRIC 19,Sensor,1
 Non-Parent Node Connection,NODE 121,ZONEHVAC:DEHUMIDIFIER:DX,ZONE HVAC DEHUMIDIFIER,Inlet,1
 Non-Parent Node Connection,NODE 122,ZONEHVAC:DEHUMIDIFIER:DX,ZONE HVAC DEHUMIDIFIER,Outlet,1
 Non-Parent Node Connection,NODE 49,AIRLOOPHVAC:ZONEMIXER,AIR LOOP HVAC ZONE MIXER 1,Outlet,1
 Non-Parent Node Connection,NODE 57,AIRLOOPHVAC:ZONEMIXER,AIR LOOP HVAC ZONE MIXER 1,Inlet,1
 Non-Parent Node Connection,NODE 60,AIRLOOPHVAC:ZONEMIXER,AIR LOOP HVAC ZONE MIXER 1,Inlet,1
 Non-Parent Node Connection,NODE 63,AIRLOOPHVAC:ZONEMIXER,AIR LOOP HVAC ZONE MIXER 1,Inlet,1
 Non-Parent Node Connection,NODE 66,AIRLOOPHVAC:ZONEMIXER,AIR LOOP HVAC ZONE MIXER 1,Inlet,1
 Non-Parent Node Connection,NODE 69,AIRLOOPHVAC:ZONEMIXER,AIR LOOP HVAC ZONE MIXER 1,Inlet,1
 Non-Parent Node Connection,NODE 74,AIRLOOPHVAC:ZONEMIXER,AIR LOOP HVAC ZONE MIXER 2,Outlet,1
 Non-Parent Node Connection,NODE 83,AIRLOOPHVAC:ZONEMIXER,AIR LOOP HVAC ZONE MIXER 2,Inlet,1
 Non-Parent Node Connection,NODE 86,AIRLOOPHVAC:ZONEMIXER,AIR LOOP HVAC ZONE MIXER 2,Inlet,1
 Non-Parent Node Connection,NODE 89,AIRLOOPHVAC:ZONEMIXER,AIR LOOP HVAC ZONE MIXER 2,Inlet,1
 Non-Parent Node Connection,NODE 92,AIRLOOPHVAC:ZONEMIXER,AIR LOOP HVAC ZONE MIXER 2,Inlet,1
 Non-Parent Node Connection,NODE 95,AIRLOOPHVAC:ZONEMIXER,AIR LOOP HVAC ZONE MIXER 2,Inlet,1
 Non-Parent Node Connection,NODE 100,AIRLOOPHVAC:ZONEMIXER,AIR LOOP HVAC ZONE MIXER 3,Outlet,1
 Non-Parent Node Connection,NODE 109,AIRLOOPHVAC:ZONEMIXER,AIR LOOP HVAC ZONE MIXER 3,Inlet,1
 Non-Parent Node Connection,NODE 112,AIRLOOPHVAC:ZONEMIXER,AIR LOOP HVAC ZONE MIXER 3,Inlet,1
 Non-Parent Node Connection,NODE 115,AIRLOOPHVAC:ZONEMIXER,AIR LOOP HVAC ZONE MIXER 3,Inlet,1
 Non-Parent Node Connection,NODE 118,AIRLOOPHVAC:ZONEMIXER,AIR LOOP HVAC ZONE MIXER 3,Inlet,1
 Non-Parent Node Connection,NODE 170,AIRLOOPHVAC:ZONEMIXER,AIR LOOP HVAC ZONE MIXER 4,Outlet,1
 Non-Parent Node Connection,NODE 120,AIRLOOPHVAC:ZONEMIXER,AIR LOOP HVAC ZONE MIXER 4,Inlet,1
 Non-Parent Node Connection,NODE 56,OUTDOORAIR:MIXER,AIR LOOP HVAC OUTDOOR AIR SYSTEM 1 OUTDOOR AIR MIXER,Outlet,1
 Non-Parent Node Connection,NODE 52,OUTDOORAIR:MIXER,AIR LOOP HVAC OUTDOOR AIR SYSTEM 1 OUTDOOR AIR MIXER,Inlet,1
 Non-Parent Node Connection,NODE 53,OUTDOORAIR:MIXER,AIR LOOP HVAC OUTDOOR AIR SYSTEM 1 OUTDOOR AIR MIXER,ReliefAir,1
 Non-Parent Node Connection,NODE 46,OUTDOORAIR:MIXER,AIR LOOP HVAC OUTDOOR AIR SYSTEM 1 OUTDOOR AIR MIXER,Inlet,1
 Non-Parent Node Connection,NODE 82,OUTDOORAIR:MIXER,AIR LOOP HVAC OUTDOOR AIR SYSTEM 2 OUTDOOR AIR MIXER,Outlet,1
 Non-Parent Node Connection,NODE 78,OUTDOORAIR:MIXER,AIR LOOP HVAC OUTDOOR AIR SYSTEM 2 OUTDOOR AIR MIXER,Inlet,1
 Non-Parent Node Connection,NODE 79,OUTDOORAIR:MIXER,AIR LOOP HVAC OUTDOOR AIR SYSTEM 2 OUTDOOR AIR MIXER,ReliefAir,1
 Non-Parent Node Connection,NODE 71,OUTDOORAIR:MIXER,AIR LOOP HVAC OUTDOOR AIR SYSTEM 2 OUTDOOR AIR MIXER,Inlet,1
 Non-Parent Node Connection,NODE 108,OUTDOORAIR:MIXER,AIR LOOP HVAC OUTDOOR AIR SYSTEM 3 OUTDOOR AIR MIXER,Outlet,1
 Non-Parent Node Connection,NODE 104,OUTDOORAIR:MIXER,AIR LOOP HVAC OUTDOOR AIR SYSTEM 3 OUTDOOR AIR MIXER,Inlet,1
 Non-Parent Node Connection,NODE 105,OUTDOORAIR:MIXER,AIR LOOP HVAC OUTDOOR AIR SYSTEM 3 OUTDOOR AIR MIXER,ReliefAir,1
 Non-Parent Node Connection,NODE 97,OUTDOORAIR:MIXER,AIR LOOP HVAC OUTDOOR AIR SYSTEM 3 OUTDOOR AIR MIXER,Inlet,1
 Non-Parent Node Connection,NODE 174,OUTDOORAIR:MIXER,AIR LOOP HVAC OUTDOOR AIR SYSTEM 4 OUTDOOR AIR MIXER,Outlet,1
 Non-Parent Node Connection,NODE 172,OUTDOORAIR:MIXER,AIR LOOP HVAC OUTDOOR AIR SYSTEM 4 OUTDOOR AIR MIXER,Inlet,1
 Non-Parent Node Connection,NODE 173,OUTDOORAIR:MIXER,AIR LOOP HVAC OUTDOOR AIR SYSTEM 4 OUTDOOR AIR MIXER,ReliefAir,1
 Non-Parent Node Connection,NODE 167,OUTDOORAIR:MIXER,AIR LOOP HVAC OUTDOOR AIR SYSTEM 4 OUTDOOR AIR MIXER,Inlet,1
 Non-Parent Node Connection,NODE 24,COIL:COOLING:WATER,COIL COOLING WATER 1,Inlet,2
 Non-Parent Node Connection,NODE 51,COIL:COOLING:WATER,COIL COOLING WATER 1,Outlet,2
 Non-Parent Node Connection,NODE 56,COIL:COOLING:WATER,COIL COOLING WATER 1,Inlet,1
 Non-Parent Node Connection,NODE 55,COIL:COOLING:WATER,COIL COOLING WATER 1,Outlet,1
 Non-Parent Node Connection,NODE 76,COIL:COOLING:WATER,COIL COOLING WATER 2,Inlet,2
 Non-Parent Node Connection,NODE 77,COIL:COOLING:WATER,COIL COOLING WATER 2,Outlet,2
 Non-Parent Node Connection,NODE 82,COIL:COOLING:WATER,COIL COOLING WATER 2,Inlet,1
 Non-Parent Node Connection,NODE 81,COIL:COOLING:WATER,COIL COOLING WATER 2,Outlet,1
 Non-Parent Node Connection,NODE 102,COIL:COOLING:WATER,COIL COOLING WATER 3,Inlet,2
 Non-Parent Node Connection,NODE 103,COIL:COOLING:WATER,COIL COOLING WATER 3,Outlet,2
 Non-Parent Node Connection,NODE 108,COIL:COOLING:WATER,COIL COOLING WATER 3,Inlet,1
 Non-Parent Node Connection,NODE 107,COIL:COOLING:WATER,COIL COOLING WATER 3,Outlet,1
 Non-Parent Node Connection,NODE 178,COIL:COOLING:WATER,COIL COOLING WATER 4,Inlet,2
 Non-Parent Node Connection,NODE 179,COIL:COOLING:WATER,COIL COOLING WATER 4,Outlet,2
 Non-Parent Node Connection,NODE 174,COIL:COOLING:WATER,COIL COOLING WATER 4,Inlet,1
 Non-Parent Node Connection,NODE 175,COIL:COOLING:WATER,COIL COOLING WATER 4,Outlet,1
 Non-Parent Node Connection,NODE 55,CONTROLLER:WATERCOIL,CONTROLLER WATER COIL 1,Sensor,1
 Non-Parent Node Connection,NODE 24,CONTROLLER:WATERCOIL,CONTROLLER WATER COIL 1,Actuator,1
 Non-Parent Node Connection,NODE 81,CONTROLLER:WATERCOIL,CONTROLLER WATER COIL 2,Sensor,1
 Non-Parent Node Connection,NODE 76,CONTROLLER:WATERCOIL,CONTROLLER WATER COIL 2,Actuator,1
 Non-Parent Node Connection,NODE 107,CONTROLLER:WATERCOIL,CONTROLLER WATER COIL 3,Sensor,1
 Non-Parent Node Connection,NODE 102,CONTROLLER:WATERCOIL,CONTROLLER WATER COIL 3,Actuator,1
 Non-Parent Node Connection,NODE 175,CONTROLLER:WATERCOIL,CONTROLLER WATER COIL 4,Sensor,1
 Non-Parent Node Connection,NODE 178,CONTROLLER:WATERCOIL,CONTROLLER WATER COIL 4,Actuator,1
 Non-Parent Node Connection,NODE 54,FAN:VARIABLEVOLUME,FAN VARIABLE VOLUME 1,Inlet,1
 Non-Parent Node Connection,NODE 47,FAN:VARIABLEVOLUME,FAN VARIABLE VOLUME 1,Outlet,1
 Non-Parent Node Connection,NODE 80,FAN:VARIABLEVOLUME,FAN VARIABLE VOLUME 2,Inlet,1
 Non-Parent Node Connection,NODE 72,FAN:VARIABLEVOLUME,FAN VARIABLE VOLUME 2,Outlet,1
 Non-Parent Node Connection,NODE 106,FAN:VARIABLEVOLUME,FAN VARIABLE VOLUME 3,Inlet,1
 Non-Parent Node Connection,NODE 98,FAN:VARIABLEVOLUME,FAN VARIABLE VOLUME 3,Outlet,1
 Non-Parent Node Connection,NODE 176,FAN:VARIABLEVOLUME,FAN VARIABLE VOLUME 4,Inlet,1
 Non-Parent Node Connection,NODE 168,FAN:VARIABLEVOLUME,FAN VARIABLE VOLUME 4,Outlet,1
 Non-Parent Node Connection,NODE 56,CONTROLLER:OUTDOORAIR,CONTROLLER OUTDOOR AIR 1,Sensor,1
 Non-Parent Node Connection,NODE 52,CONTROLLER:OUTDOORAIR,CONTROLLER OUTDOOR AIR 1,Actuator,1
 Non-Parent Node Connection,NODE 53,CONTROLLER:OUTDOORAIR,CONTROLLER OUTDOOR AIR 1,Actuator,1
 Non-Parent Node Connection,NODE 46,CONTROLLER:OUTDOORAIR,CONTROLLER OUTDOOR AIR 1,Sensor,1
 Non-Parent Node Connection,NODE 82,CONTROLLER:OUTDOORAIR,CONTROLLER OUTDOOR AIR 2,Sensor,1
 Non-Parent Node Connection,NODE 78,CONTROLLER:OUTDOORAIR,CONTROLLER OUTDOOR AIR 2,Actuator,1
 Non-Parent Node Connection,NODE 79,CONTROLLER:OUTDOORAIR,CONTROLLER OUTDOOR AIR 2,Actuator,1
 Non-Parent Node Connection,NODE 71,CONTROLLER:OUTDOORAIR,CONTROLLER OUTDOOR AIR 2,Sensor,1
 Non-Parent Node Connection,NODE 108,CONTROLLER:OUTDOORAIR,CONTROLLER OUTDOOR AIR 3,Sensor,1
 Non-Parent Node Connection,NODE 104,CONTROLLER:OUTDOORAIR,CONTROLLER OUTDOOR AIR 3,Actuator,1
 Non-Parent Node Connection,NODE 105,CONTROLLER:OUTDOORAIR,CONTROLLER OUTDOOR AIR 3,Actuator,1
 Non-Parent Node Connection,NODE 97,CONTROLLER:OUTDOORAIR,CONTROLLER OUTDOOR AIR 3,Sensor,1
 Non-Parent Node Connection,NODE 174,CONTROLLER:OUTDOORAIR,CONTROLLER OUTDOOR AIR 4,Sensor,1
 Non-Parent Node Connection,NODE 172,CONTROLLER:OUTDOORAIR,CONTROLLER OUTDOOR AIR 4,Actuator,1
 Non-Parent Node Connection,NODE 173,CONTROLLER:OUTDOORAIR,CONTROLLER OUTDOOR AIR 4,Actuator,1
 Non-Parent Node Connection,NODE 167,CONTROLLER:OUTDOORAIR,CONTROLLER OUTDOOR AIR 4,Sensor,1
 Non-Parent Node Connection,NODE 21,CHILLER:ELECTRIC:EIR,PRIMARY CHILLER WATERCOOLED SCROLL 82TONS 0.8KW/TON,Inlet,1
 Non-Parent Node Connection,NODE 26,CHILLER:ELECTRIC:EIR,PRIMARY CHILLER WATERCOOLED SCROLL 82TONS 0.8KW/TON,Outlet,1
 Non-Parent Node Connection,NODE 37,CHILLER:ELECTRIC:EIR,PRIMARY CHILLER WATERCOOLED SCROLL 82TONS 0.8KW/TON,Inlet,2
 Non-Parent Node Connection,NODE 43,CHILLER:ELECTRIC:EIR,PRIMARY CHILLER WATERCOOLED SCROLL 82TONS 0.8KW/TON,Outlet,2
 Non-Parent Node Connection,NODE 27,CHILLER:ELECTRIC:EIR,SECONDARY CHILLER WATERCOOLED SCROLL 0TONS 0.8KW/TON,Inlet,1
 Non-Parent Node Connection,NODE 28,CHILLER:ELECTRIC:EIR,SECONDARY CHILLER WATERCOOLED SCROLL 0TONS 0.8KW/TON,Outlet,1
 Non-Parent Node Connection,NODE 44,CHILLER:ELECTRIC:EIR,SECONDARY CHILLER WATERCOOLED SCROLL 0TONS 0.8KW/TON,Inlet,2
 Non-Parent Node Connection,NODE 45,CHILLER:ELECTRIC:EIR,SECONDARY CHILLER WATERCOOLED SCROLL 0TONS 0.8KW/TON,Outlet,2
 Non-Parent Node Connection,NODE 34,COOLINGTOWER:SINGLESPEED,COOLING TOWER SINGLE SPEED 1,Inlet,1
 Non-Parent Node Connection,NODE 39,COOLINGTOWER:SINGLESPEED,COOLING TOWER SINGLE SPEED 1,Outlet,1
 Non-Parent Node Connection,NODE 19,PUMP:CONSTANTSPEED,PUMP CONSTANT SPEED 1,Inlet,1
 Non-Parent Node Connection,NODE 25,PUMP:CONSTANTSPEED,PUMP CONSTANT SPEED 1,Outlet,1
 Non-Parent Node Connection,NODE 32,PUMP:CONSTANTSPEED,PUMP CONSTANT SPEED 2,Inlet,1
 Non-Parent Node Connection,NODE 38,PUMP:CONSTANTSPEED,PUMP CONSTANT SPEED 2,Outlet,1
 Non-Parent Node Connection,NODE 123,PUMP:CONSTANTSPEED,SERVICE WATER LOOP PUMP,Inlet,1
 Non-Parent Node Connection,NODE 129,PUMP:CONSTANTSPEED,SERVICE WATER LOOP PUMP,Outlet,1
